data_zeolite

_audit_creation_method RASPA-1.0
_audit_creation_date 2021-6-7
_audit_author_name ''

_cell_length_a    13.961
_cell_length_b    5.264
_cell_length_c    25.967
_cell_angle_alpha 90
_cell_angle_beta  90
_cell_angle_gamma 90
_cell_volume      19083.3

_symmetry_cell_setting          orthorhombic
_symmetry_space_group_name_Hall 'P 1'
_symmetry_space_group_name_H-M  'P 1'
_symmetry_Int_Tables_number     1

_symmetry_equiv_pos_as_xyz 'x,y,z'

loop_
_atom_site_label
_atom_site_type_symbol
_atom_site_fract_x
_atom_site_fract_y
_atom_site_fract_z
_atom_site_charge
T        Si     0.053800000000     0.050000000000     0.034600000000     0          
T        Si     0.000000000000     0.150000000000     0.274300000000     0          
T        Si     0.144800000000     0.150000000000     0.191900000000     0          
T        Si     0.000000000000     0.050000000000     0.203500000000     0          
T        Si     0.099350000000     0.050000000000     0.142100000000     0          
T        Si     0.446200000000     0.050000000000     0.034600000000     0          
T        Si     0.355200000000     0.150000000000     0.191900000000     0          
T        Si     0.400650000000     0.050000000000     0.142100000000     0          
T        Si     0.053800000000     0.150000000000     0.965400000000     0          
T        Si     0.000000000000     0.050000000000     0.725700000000     0          
T        Si     0.144800000000     0.050000000000     0.808100000000     0          
T        Si     0.000000000000     0.150000000000     0.796500000000     0          
T        Si     0.099350000000     0.150000000000     0.857900000000     0          
T        Si     0.446200000000     0.150000000000     0.965400000000     0          
T        Si     0.355200000000     0.050000000000     0.808100000000     0          
T        Si     0.400650000000     0.150000000000     0.857900000000     0          
T        Si     0.303800000000     0.150000000000     0.534600000000     0          
T        Si     0.250000000000     0.050000000000     0.774300000000     0          
T        Si     0.394800000000     0.050000000000     0.691900000000     0          
T        Si     0.250000000000     0.150000000000     0.703500000000     0          
T        Si     0.349350000000     0.150000000000     0.642100000000     0          
T        Si     0.196200000000     0.150000000000     0.534600000000     0          
T        Si     0.105200000000     0.050000000000     0.691900000000     0          
T        Si     0.150650000000     0.150000000000     0.642100000000     0          
T        Si     0.303800000000     0.050000000000     0.465400000000     0          
T        Si     0.250000000000     0.150000000000     0.225700000000     0          
T        Si     0.394800000000     0.150000000000     0.308100000000     0          
T        Si     0.250000000000     0.050000000000     0.296500000000     0          
T        Si     0.349350000000     0.050000000000     0.357900000000     0          
T        Si     0.196200000000     0.050000000000     0.465400000000     0          
T        Si     0.105200000000     0.150000000000     0.308100000000     0          
T        Si     0.150650000000     0.050000000000     0.357900000000     0          
T        Si     0.053800000000     0.250000000000     0.034600000000     0          
T        Si     0.000000000000     0.350000000000     0.274300000000     0          
T        Si     0.144800000000     0.350000000000     0.191900000000     0          
T        Si     0.000000000000     0.250000000000     0.203500000000     0          
T        Si     0.099350000000     0.250000000000     0.142100000000     0          
T        Si     0.446200000000     0.250000000000     0.034600000000     0          
T        Si     0.355200000000     0.350000000000     0.191900000000     0          
T        Si     0.400650000000     0.250000000000     0.142100000000     0          
T        Si     0.053800000000     0.350000000000     0.965400000000     0          
T        Si     0.000000000000     0.250000000000     0.725700000000     0          
T        Si     0.144800000000     0.250000000000     0.808100000000     0          
T        Si     0.000000000000     0.350000000000     0.796500000000     0          
T        Si     0.099350000000     0.350000000000     0.857900000000     0          
T        Si     0.446200000000     0.350000000000     0.965400000000     0          
T        Si     0.355200000000     0.250000000000     0.808100000000     0          
T        Si     0.400650000000     0.350000000000     0.857900000000     0          
T        Si     0.303800000000     0.350000000000     0.534600000000     0          
T        Si     0.250000000000     0.250000000000     0.774300000000     0          
T        Si     0.394800000000     0.250000000000     0.691900000000     0          
T        Si     0.250000000000     0.350000000000     0.703500000000     0          
T        Si     0.349350000000     0.350000000000     0.642100000000     0          
T        Si     0.196200000000     0.350000000000     0.534600000000     0          
T        Si     0.105200000000     0.250000000000     0.691900000000     0          
T        Si     0.150650000000     0.350000000000     0.642100000000     0          
T        Si     0.303800000000     0.250000000000     0.465400000000     0          
T        Si     0.250000000000     0.350000000000     0.225700000000     0          
T        Si     0.394800000000     0.350000000000     0.308100000000     0          
T        Si     0.250000000000     0.250000000000     0.296500000000     0          
T        Si     0.349350000000     0.250000000000     0.357900000000     0          
T        Si     0.196200000000     0.250000000000     0.465400000000     0          
T        Si     0.105200000000     0.350000000000     0.308100000000     0          
T        Si     0.150650000000     0.250000000000     0.357900000000     0          
T        Si     0.053800000000     0.450000000000     0.034600000000     0          
T        Si     0.000000000000     0.550000000000     0.274300000000     0          
T        Si     0.144800000000     0.550000000000     0.191900000000     0          
T        Si     0.000000000000     0.450000000000     0.203500000000     0          
T        Si     0.099350000000     0.450000000000     0.142100000000     0          
T        Si     0.446200000000     0.450000000000     0.034600000000     0          
T        Si     0.355200000000     0.550000000000     0.191900000000     0          
T        Si     0.400650000000     0.450000000000     0.142100000000     0          
T        Si     0.053800000000     0.550000000000     0.965400000000     0          
T        Si     0.000000000000     0.450000000000     0.725700000000     0          
T        Si     0.144800000000     0.450000000000     0.808100000000     0          
T        Si     0.000000000000     0.550000000000     0.796500000000     0          
T        Si     0.099350000000     0.550000000000     0.857900000000     0          
T        Si     0.446200000000     0.550000000000     0.965400000000     0          
T        Si     0.355200000000     0.450000000000     0.808100000000     0          
T        Si     0.400650000000     0.550000000000     0.857900000000     0          
T        Si     0.303800000000     0.550000000000     0.534600000000     0          
T        Si     0.250000000000     0.450000000000     0.774300000000     0          
T        Si     0.394800000000     0.450000000000     0.691900000000     0          
T        Si     0.250000000000     0.550000000000     0.703500000000     0          
T        Si     0.349350000000     0.550000000000     0.642100000000     0          
T        Si     0.196200000000     0.550000000000     0.534600000000     0          
T        Si     0.105200000000     0.450000000000     0.691900000000     0          
T        Si     0.150650000000     0.550000000000     0.642100000000     0          
T        Si     0.303800000000     0.450000000000     0.465400000000     0          
T        Si     0.250000000000     0.550000000000     0.225700000000     0          
T        Si     0.394800000000     0.550000000000     0.308100000000     0          
T        Si     0.250000000000     0.450000000000     0.296500000000     0          
T        Si     0.349350000000     0.450000000000     0.357900000000     0          
T        Si     0.196200000000     0.450000000000     0.465400000000     0          
T        Si     0.105200000000     0.550000000000     0.308100000000     0          
T        Si     0.150650000000     0.450000000000     0.357900000000     0          
T        Si     0.053800000000     0.650000000000     0.034600000000     0          
T        Si     0.000000000000     0.750000000000     0.274300000000     0          
T        Si     0.144800000000     0.750000000000     0.191900000000     0          
T        Si     0.000000000000     0.650000000000     0.203500000000     0          
T        Si     0.099350000000     0.650000000000     0.142100000000     0          
T        Si     0.446200000000     0.650000000000     0.034600000000     0          
T        Si     0.355200000000     0.750000000000     0.191900000000     0          
T        Si     0.400650000000     0.650000000000     0.142100000000     0          
T        Si     0.053800000000     0.750000000000     0.965400000000     0          
T        Si     0.000000000000     0.650000000000     0.725700000000     0          
T        Si     0.144800000000     0.650000000000     0.808100000000     0          
T        Si     0.000000000000     0.750000000000     0.796500000000     0          
T        Si     0.099350000000     0.750000000000     0.857900000000     0          
T        Si     0.446200000000     0.750000000000     0.965400000000     0          
T        Si     0.355200000000     0.650000000000     0.808100000000     0          
T        Si     0.400650000000     0.750000000000     0.857900000000     0          
T        Si     0.303800000000     0.750000000000     0.534600000000     0          
T        Si     0.250000000000     0.650000000000     0.774300000000     0          
T        Si     0.394800000000     0.650000000000     0.691900000000     0          
T        Si     0.250000000000     0.750000000000     0.703500000000     0          
T        Si     0.349350000000     0.750000000000     0.642100000000     0          
T        Si     0.196200000000     0.750000000000     0.534600000000     0          
T        Si     0.105200000000     0.650000000000     0.691900000000     0          
T        Si     0.150650000000     0.750000000000     0.642100000000     0          
T        Si     0.303800000000     0.650000000000     0.465400000000     0          
T        Si     0.250000000000     0.750000000000     0.225700000000     0          
T        Si     0.394800000000     0.750000000000     0.308100000000     0          
T        Si     0.250000000000     0.650000000000     0.296500000000     0          
T        Si     0.349350000000     0.650000000000     0.357900000000     0          
T        Si     0.196200000000     0.650000000000     0.465400000000     0          
T        Si     0.105200000000     0.750000000000     0.308100000000     0          
T        Si     0.150650000000     0.650000000000     0.357900000000     0          
T        Si     0.053800000000     0.850000000000     0.034600000000     0          
T        Si     0.000000000000     0.950000000000     0.274300000000     0          
T        Si     0.144800000000     0.950000000000     0.191900000000     0          
T        Si     0.000000000000     0.850000000000     0.203500000000     0          
T        Si     0.099350000000     0.850000000000     0.142100000000     0          
T        Si     0.446200000000     0.850000000000     0.034600000000     0          
T        Si     0.355200000000     0.950000000000     0.191900000000     0          
T        Si     0.400650000000     0.850000000000     0.142100000000     0          
T        Si     0.053800000000     0.950000000000     0.965400000000     0          
T        Si     0.000000000000     0.850000000000     0.725700000000     0          
T        Si     0.144800000000     0.850000000000     0.808100000000     0          
T        Si     0.000000000000     0.950000000000     0.796500000000     0          
T        Si     0.099350000000     0.950000000000     0.857900000000     0          
T        Si     0.446200000000     0.950000000000     0.965400000000     0          
T        Si     0.355200000000     0.850000000000     0.808100000000     0          
T        Si     0.400650000000     0.950000000000     0.857900000000     0          
T        Si     0.303800000000     0.950000000000     0.534600000000     0          
T        Si     0.250000000000     0.850000000000     0.774300000000     0          
T        Si     0.394800000000     0.850000000000     0.691900000000     0          
T        Si     0.250000000000     0.950000000000     0.703500000000     0          
T        Si     0.349350000000     0.950000000000     0.642100000000     0          
T        Si     0.196200000000     0.950000000000     0.534600000000     0          
T        Si     0.105200000000     0.850000000000     0.691900000000     0          
T        Si     0.150650000000     0.950000000000     0.642100000000     0          
T        Si     0.303800000000     0.850000000000     0.465400000000     0          
T        Si     0.250000000000     0.950000000000     0.225700000000     0          
T        Si     0.394800000000     0.950000000000     0.308100000000     0          
T        Si     0.250000000000     0.850000000000     0.296500000000     0          
T        Si     0.349350000000     0.850000000000     0.357900000000     0          
T        Si     0.196200000000     0.850000000000     0.465400000000     0          
T        Si     0.105200000000     0.950000000000     0.308100000000     0          
T        Si     0.150650000000     0.850000000000     0.357900000000     0          
T        Si     0.553800000000     0.050000000000     0.034600000000     0          
T        Si     0.500000000000     0.150000000000     0.274300000000     0          
T        Si     0.644800000000     0.150000000000     0.191900000000     0          
T        Si     0.500000000000     0.050000000000     0.203500000000     0          
T        Si     0.599350000000     0.050000000000     0.142100000000     0          
T        Si     0.946200000000     0.050000000000     0.034600000000     0          
T        Si     0.855200000000     0.150000000000     0.191900000000     0          
T        Si     0.900650000000     0.050000000000     0.142100000000     0          
T        Si     0.553800000000     0.150000000000     0.965400000000     0          
T        Si     0.500000000000     0.050000000000     0.725700000000     0          
T        Si     0.644800000000     0.050000000000     0.808100000000     0          
T        Si     0.500000000000     0.150000000000     0.796500000000     0          
T        Si     0.599350000000     0.150000000000     0.857900000000     0          
T        Si     0.946200000000     0.150000000000     0.965400000000     0          
T        Si     0.855200000000     0.050000000000     0.808100000000     0          
T        Si     0.900650000000     0.150000000000     0.857900000000     0          
T        Si     0.803800000000     0.150000000000     0.534600000000     0          
T        Si     0.750000000000     0.050000000000     0.774300000000     0          
T        Si     0.894800000000     0.050000000000     0.691900000000     0          
T        Si     0.750000000000     0.150000000000     0.703500000000     0          
T        Si     0.849350000000     0.150000000000     0.642100000000     0          
T        Si     0.696200000000     0.150000000000     0.534600000000     0          
T        Si     0.605200000000     0.050000000000     0.691900000000     0          
T        Si     0.650650000000     0.150000000000     0.642100000000     0          
T        Si     0.803800000000     0.050000000000     0.465400000000     0          
T        Si     0.750000000000     0.150000000000     0.225700000000     0          
T        Si     0.894800000000     0.150000000000     0.308100000000     0          
T        Si     0.750000000000     0.050000000000     0.296500000000     0          
T        Si     0.849350000000     0.050000000000     0.357900000000     0          
T        Si     0.696200000000     0.050000000000     0.465400000000     0          
T        Si     0.605200000000     0.150000000000     0.308100000000     0          
T        Si     0.650650000000     0.050000000000     0.357900000000     0          
T        Si     0.553800000000     0.250000000000     0.034600000000     0          
T        Si     0.500000000000     0.350000000000     0.274300000000     0          
T        Si     0.644800000000     0.350000000000     0.191900000000     0          
T        Si     0.500000000000     0.250000000000     0.203500000000     0          
T        Si     0.599350000000     0.250000000000     0.142100000000     0          
T        Si     0.946200000000     0.250000000000     0.034600000000     0          
T        Si     0.855200000000     0.350000000000     0.191900000000     0          
T        Si     0.900650000000     0.250000000000     0.142100000000     0          
T        Si     0.553800000000     0.350000000000     0.965400000000     0          
T        Si     0.500000000000     0.250000000000     0.725700000000     0          
T        Si     0.644800000000     0.250000000000     0.808100000000     0          
T        Si     0.500000000000     0.350000000000     0.796500000000     0          
T        Si     0.599350000000     0.350000000000     0.857900000000     0          
T        Si     0.946200000000     0.350000000000     0.965400000000     0          
T        Si     0.855200000000     0.250000000000     0.808100000000     0          
T        Si     0.900650000000     0.350000000000     0.857900000000     0          
T        Si     0.803800000000     0.350000000000     0.534600000000     0          
T        Si     0.750000000000     0.250000000000     0.774300000000     0          
T        Si     0.894800000000     0.250000000000     0.691900000000     0          
T        Si     0.750000000000     0.350000000000     0.703500000000     0          
T        Si     0.849350000000     0.350000000000     0.642100000000     0          
T        Si     0.696200000000     0.350000000000     0.534600000000     0          
T        Si     0.605200000000     0.250000000000     0.691900000000     0          
T        Si     0.650650000000     0.350000000000     0.642100000000     0          
T        Si     0.803800000000     0.250000000000     0.465400000000     0          
T        Si     0.750000000000     0.350000000000     0.225700000000     0          
T        Si     0.894800000000     0.350000000000     0.308100000000     0          
T        Si     0.750000000000     0.250000000000     0.296500000000     0          
T        Si     0.849350000000     0.250000000000     0.357900000000     0          
T        Si     0.696200000000     0.250000000000     0.465400000000     0          
T        Si     0.605200000000     0.350000000000     0.308100000000     0          
T        Si     0.650650000000     0.250000000000     0.357900000000     0          
T        Si     0.553800000000     0.450000000000     0.034600000000     0          
T        Si     0.500000000000     0.550000000000     0.274300000000     0          
T        Si     0.644800000000     0.550000000000     0.191900000000     0          
T        Si     0.500000000000     0.450000000000     0.203500000000     0          
T        Si     0.599350000000     0.450000000000     0.142100000000     0          
T        Si     0.946200000000     0.450000000000     0.034600000000     0          
T        Si     0.855200000000     0.550000000000     0.191900000000     0          
T        Si     0.900650000000     0.450000000000     0.142100000000     0          
T        Si     0.553800000000     0.550000000000     0.965400000000     0          
T        Si     0.500000000000     0.450000000000     0.725700000000     0          
T        Si     0.644800000000     0.450000000000     0.808100000000     0          
T        Si     0.500000000000     0.550000000000     0.796500000000     0          
T        Si     0.599350000000     0.550000000000     0.857900000000     0          
T        Si     0.946200000000     0.550000000000     0.965400000000     0          
T        Si     0.855200000000     0.450000000000     0.808100000000     0          
T        Si     0.900650000000     0.550000000000     0.857900000000     0          
T        Si     0.803800000000     0.550000000000     0.534600000000     0          
T        Si     0.750000000000     0.450000000000     0.774300000000     0          
T        Si     0.894800000000     0.450000000000     0.691900000000     0          
T        Si     0.750000000000     0.550000000000     0.703500000000     0          
T        Si     0.849350000000     0.550000000000     0.642100000000     0          
T        Si     0.696200000000     0.550000000000     0.534600000000     0          
T        Si     0.605200000000     0.450000000000     0.691900000000     0          
T        Si     0.650650000000     0.550000000000     0.642100000000     0          
T        Si     0.803800000000     0.450000000000     0.465400000000     0          
T        Si     0.750000000000     0.550000000000     0.225700000000     0          
T        Si     0.894800000000     0.550000000000     0.308100000000     0          
T        Si     0.750000000000     0.450000000000     0.296500000000     0          
T        Si     0.849350000000     0.450000000000     0.357900000000     0          
T        Si     0.696200000000     0.450000000000     0.465400000000     0          
T        Si     0.605200000000     0.550000000000     0.308100000000     0          
T        Si     0.650650000000     0.450000000000     0.357900000000     0          
T        Si     0.553800000000     0.650000000000     0.034600000000     0          
T        Si     0.500000000000     0.750000000000     0.274300000000     0          
T        Si     0.644800000000     0.750000000000     0.191900000000     0          
T        Si     0.500000000000     0.650000000000     0.203500000000     0          
T        Si     0.599350000000     0.650000000000     0.142100000000     0          
T        Si     0.946200000000     0.650000000000     0.034600000000     0          
T        Si     0.855200000000     0.750000000000     0.191900000000     0          
T        Si     0.900650000000     0.650000000000     0.142100000000     0          
T        Si     0.553800000000     0.750000000000     0.965400000000     0          
T        Si     0.500000000000     0.650000000000     0.725700000000     0          
T        Si     0.644800000000     0.650000000000     0.808100000000     0          
T        Si     0.500000000000     0.750000000000     0.796500000000     0          
T        Si     0.599350000000     0.750000000000     0.857900000000     0          
T        Si     0.946200000000     0.750000000000     0.965400000000     0          
T        Si     0.855200000000     0.650000000000     0.808100000000     0          
T        Si     0.900650000000     0.750000000000     0.857900000000     0          
T        Si     0.803800000000     0.750000000000     0.534600000000     0          
T        Si     0.750000000000     0.650000000000     0.774300000000     0          
T        Si     0.894800000000     0.650000000000     0.691900000000     0          
T        Si     0.750000000000     0.750000000000     0.703500000000     0          
T        Si     0.849350000000     0.750000000000     0.642100000000     0          
T        Si     0.696200000000     0.750000000000     0.534600000000     0          
T        Si     0.605200000000     0.650000000000     0.691900000000     0          
T        Si     0.650650000000     0.750000000000     0.642100000000     0          
T        Si     0.803800000000     0.650000000000     0.465400000000     0          
T        Si     0.750000000000     0.750000000000     0.225700000000     0          
T        Si     0.894800000000     0.750000000000     0.308100000000     0          
T        Si     0.750000000000     0.650000000000     0.296500000000     0          
T        Si     0.849350000000     0.650000000000     0.357900000000     0          
T        Si     0.696200000000     0.650000000000     0.465400000000     0          
T        Si     0.605200000000     0.750000000000     0.308100000000     0          
T        Si     0.650650000000     0.650000000000     0.357900000000     0          
T        Si     0.553800000000     0.850000000000     0.034600000000     0          
T        Si     0.500000000000     0.950000000000     0.274300000000     0          
T        Si     0.644800000000     0.950000000000     0.191900000000     0          
T        Si     0.500000000000     0.850000000000     0.203500000000     0          
T        Si     0.599350000000     0.850000000000     0.142100000000     0          
T        Si     0.946200000000     0.850000000000     0.034600000000     0          
T        Si     0.855200000000     0.950000000000     0.191900000000     0          
T        Si     0.900650000000     0.850000000000     0.142100000000     0          
T        Si     0.553800000000     0.950000000000     0.965400000000     0          
T        Si     0.500000000000     0.850000000000     0.725700000000     0          
T        Si     0.644800000000     0.850000000000     0.808100000000     0          
T        Si     0.500000000000     0.950000000000     0.796500000000     0          
T        Si     0.599350000000     0.950000000000     0.857900000000     0          
T        Si     0.946200000000     0.950000000000     0.965400000000     0          
T        Si     0.855200000000     0.850000000000     0.808100000000     0          
T        Si     0.900650000000     0.950000000000     0.857900000000     0          
T        Si     0.803800000000     0.950000000000     0.534600000000     0          
T        Si     0.750000000000     0.850000000000     0.774300000000     0          
T        Si     0.894800000000     0.850000000000     0.691900000000     0          
T        Si     0.750000000000     0.950000000000     0.703500000000     0          
T        Si     0.849350000000     0.950000000000     0.642100000000     0          
T        Si     0.696200000000     0.950000000000     0.534600000000     0          
T        Si     0.605200000000     0.850000000000     0.691900000000     0          
T        Si     0.650650000000     0.950000000000     0.642100000000     0          
T        Si     0.803800000000     0.850000000000     0.465400000000     0          
T        Si     0.750000000000     0.950000000000     0.225700000000     0          
T        Si     0.894800000000     0.950000000000     0.308100000000     0          
T        Si     0.750000000000     0.850000000000     0.296500000000     0          
T        Si     0.849350000000     0.850000000000     0.357900000000     0          
T        Si     0.696200000000     0.850000000000     0.465400000000     0          
T        Si     0.605200000000     0.950000000000     0.308100000000     0          
T        Si     0.650650000000     0.850000000000     0.357900000000     0          
O        O      0.000000000000     0.050000000000     0.057100000000     0          
O        O      0.047000000000     0.050000000000     0.167900000000     0          
O        O      0.000000000000     0.100020000000     0.238900000000     0          
O        O      0.061650000000     0.000000000000     0.000000000000     0          
O        O      0.092550000000     0.050000000000     0.080600000000     0          
O        O      0.125000000000     0.150000000000     0.250000000000     0          
O        O      0.047500000000     0.150000000000     0.309300000000     0          
O        O      0.127100000000     0.100120000000     0.161300000000     0          
O        O      0.453000000000     0.050000000000     0.167900000000     0          
O        O      0.000000000000     0.199980000000     0.238900000000     0          
O        O      0.438350000000     0.100000000000     0.000000000000     0          
O        O      0.407450000000     0.050000000000     0.080600000000     0          
O        O      0.375000000000     0.150000000000     0.250000000000     0          
O        O      0.452500000000     0.150000000000     0.309300000000     0          
O        O      0.372900000000     0.199880000000     0.161300000000     0          
O        O      0.000000000000     0.150000000000     0.942900000000     0          
O        O      0.047000000000     0.150000000000     0.832100000000     0          
O        O      0.000000000000     0.099980000000     0.761100000000     0          
O        O      0.092550000000     0.150000000000     0.919400000000     0          
O        O      0.125000000000     0.050000000000     0.750000000000     0          
O        O      0.047500000000     0.050000000000     0.690700000000     0          
O        O      0.127100000000     0.099880000000     0.838700000000     0          
O        O      0.453000000000     0.150000000000     0.832100000000     0          
O        O      0.000000000000     0.000020000000     0.761100000000     0          
O        O      0.407450000000     0.150000000000     0.919400000000     0          
O        O      0.375000000000     0.050000000000     0.750000000000     0          
O        O      0.452500000000     0.050000000000     0.690700000000     0          
O        O      0.372900000000     0.000120000000     0.838700000000     0          
O        O      0.438350000000     0.000000000000     0.000000000000     0          
O        O      0.372900000000     0.099880000000     0.838700000000     0          
O        O      0.061650000000     0.100000000000     0.000000000000     0          
O        O      0.127100000000     0.000120000000     0.838700000000     0          
O        O      0.372900000000     0.100120000000     0.161300000000     0          
O        O      0.127100000000     0.199880000000     0.161300000000     0          
O        O      0.250000000000     0.150000000000     0.557100000000     0          
O        O      0.297000000000     0.150000000000     0.667900000000     0          
O        O      0.250000000000     0.000020000000     0.738900000000     0          
O        O      0.311650000000     0.100000000000     0.500000000000     0          
O        O      0.342550000000     0.150000000000     0.580600000000     0          
O        O      0.297500000000     0.050000000000     0.809300000000     0          
O        O      0.377100000000     0.000120000000     0.661300000000     0          
O        O      0.203000000000     0.150000000000     0.667900000000     0          
O        O      0.250000000000     0.099980000000     0.738900000000     0          
O        O      0.188350000000     0.000000000000     0.500000000000     0          
O        O      0.157450000000     0.150000000000     0.580600000000     0          
O        O      0.202500000000     0.050000000000     0.809300000000     0          
O        O      0.122900000000     0.099880000000     0.661300000000     0          
O        O      0.250000000000     0.050000000000     0.442900000000     0          
O        O      0.297000000000     0.050000000000     0.332100000000     0          
O        O      0.250000000000     0.199980000000     0.261100000000     0          
O        O      0.342550000000     0.050000000000     0.419400000000     0          
O        O      0.297500000000     0.150000000000     0.190700000000     0          
O        O      0.377100000000     0.199880000000     0.338700000000     0          
O        O      0.203000000000     0.050000000000     0.332100000000     0          
O        O      0.250000000000     0.100020000000     0.261100000000     0          
O        O      0.157450000000     0.050000000000     0.419400000000     0          
O        O      0.202500000000     0.150000000000     0.190700000000     0          
O        O      0.122900000000     0.100120000000     0.338700000000     0          
O        O      0.188350000000     0.100000000000     0.500000000000     0          
O        O      0.122900000000     0.199880000000     0.338700000000     0          
O        O      0.311650000000     0.000000000000     0.500000000000     0          
O        O      0.377100000000     0.100120000000     0.338700000000     0          
O        O      0.122900000000     0.000120000000     0.661300000000     0          
O        O      0.377100000000     0.099880000000     0.661300000000     0          
O        O      0.000000000000     0.250000000000     0.057100000000     0          
O        O      0.047000000000     0.250000000000     0.167900000000     0          
O        O      0.000000000000     0.300020000000     0.238900000000     0          
O        O      0.061650000000     0.200000000000     0.000000000000     0          
O        O      0.092550000000     0.250000000000     0.080600000000     0          
O        O      0.125000000000     0.350000000000     0.250000000000     0          
O        O      0.047500000000     0.350000000000     0.309300000000     0          
O        O      0.127100000000     0.300120000000     0.161300000000     0          
O        O      0.453000000000     0.250000000000     0.167900000000     0          
O        O      0.000000000000     0.399980000000     0.238900000000     0          
O        O      0.438350000000     0.300000000000     0.000000000000     0          
O        O      0.407450000000     0.250000000000     0.080600000000     0          
O        O      0.375000000000     0.350000000000     0.250000000000     0          
O        O      0.452500000000     0.350000000000     0.309300000000     0          
O        O      0.372900000000     0.399880000000     0.161300000000     0          
O        O      0.000000000000     0.350000000000     0.942900000000     0          
O        O      0.047000000000     0.350000000000     0.832100000000     0          
O        O      0.000000000000     0.299980000000     0.761100000000     0          
O        O      0.092550000000     0.350000000000     0.919400000000     0          
O        O      0.125000000000     0.250000000000     0.750000000000     0          
O        O      0.047500000000     0.250000000000     0.690700000000     0          
O        O      0.127100000000     0.299880000000     0.838700000000     0          
O        O      0.453000000000     0.350000000000     0.832100000000     0          
O        O      0.000000000000     0.200020000000     0.761100000000     0          
O        O      0.407450000000     0.350000000000     0.919400000000     0          
O        O      0.375000000000     0.250000000000     0.750000000000     0          
O        O      0.452500000000     0.250000000000     0.690700000000     0          
O        O      0.372900000000     0.200120000000     0.838700000000     0          
O        O      0.438350000000     0.200000000000     0.000000000000     0          
O        O      0.372900000000     0.299880000000     0.838700000000     0          
O        O      0.061650000000     0.300000000000     0.000000000000     0          
O        O      0.127100000000     0.200120000000     0.838700000000     0          
O        O      0.372900000000     0.300120000000     0.161300000000     0          
O        O      0.127100000000     0.399880000000     0.161300000000     0          
O        O      0.250000000000     0.350000000000     0.557100000000     0          
O        O      0.297000000000     0.350000000000     0.667900000000     0          
O        O      0.250000000000     0.200020000000     0.738900000000     0          
O        O      0.311650000000     0.300000000000     0.500000000000     0          
O        O      0.342550000000     0.350000000000     0.580600000000     0          
O        O      0.297500000000     0.250000000000     0.809300000000     0          
O        O      0.377100000000     0.200120000000     0.661300000000     0          
O        O      0.203000000000     0.350000000000     0.667900000000     0          
O        O      0.250000000000     0.299980000000     0.738900000000     0          
O        O      0.188350000000     0.200000000000     0.500000000000     0          
O        O      0.157450000000     0.350000000000     0.580600000000     0          
O        O      0.202500000000     0.250000000000     0.809300000000     0          
O        O      0.122900000000     0.299880000000     0.661300000000     0          
O        O      0.250000000000     0.250000000000     0.442900000000     0          
O        O      0.297000000000     0.250000000000     0.332100000000     0          
O        O      0.250000000000     0.399980000000     0.261100000000     0          
O        O      0.342550000000     0.250000000000     0.419400000000     0          
O        O      0.297500000000     0.350000000000     0.190700000000     0          
O        O      0.377100000000     0.399880000000     0.338700000000     0          
O        O      0.203000000000     0.250000000000     0.332100000000     0          
O        O      0.250000000000     0.300020000000     0.261100000000     0          
O        O      0.157450000000     0.250000000000     0.419400000000     0          
O        O      0.202500000000     0.350000000000     0.190700000000     0          
O        O      0.122900000000     0.300120000000     0.338700000000     0          
O        O      0.188350000000     0.300000000000     0.500000000000     0          
O        O      0.122900000000     0.399880000000     0.338700000000     0          
O        O      0.311650000000     0.200000000000     0.500000000000     0          
O        O      0.377100000000     0.300120000000     0.338700000000     0          
O        O      0.122900000000     0.200120000000     0.661300000000     0          
O        O      0.377100000000     0.299880000000     0.661300000000     0          
O        O      0.000000000000     0.450000000000     0.057100000000     0          
O        O      0.047000000000     0.450000000000     0.167900000000     0          
O        O      0.000000000000     0.500020000000     0.238900000000     0          
O        O      0.061650000000     0.400000000000     0.000000000000     0          
O        O      0.092550000000     0.450000000000     0.080600000000     0          
O        O      0.125000000000     0.550000000000     0.250000000000     0          
O        O      0.047500000000     0.550000000000     0.309300000000     0          
O        O      0.127100000000     0.500120000000     0.161300000000     0          
O        O      0.453000000000     0.450000000000     0.167900000000     0          
O        O      0.000000000000     0.599980000000     0.238900000000     0          
O        O      0.438350000000     0.500000000000     0.000000000000     0          
O        O      0.407450000000     0.450000000000     0.080600000000     0          
O        O      0.375000000000     0.550000000000     0.250000000000     0          
O        O      0.452500000000     0.550000000000     0.309300000000     0          
O        O      0.372900000000     0.599880000000     0.161300000000     0          
O        O      0.000000000000     0.550000000000     0.942900000000     0          
O        O      0.047000000000     0.550000000000     0.832100000000     0          
O        O      0.000000000000     0.499980000000     0.761100000000     0          
O        O      0.092550000000     0.550000000000     0.919400000000     0          
O        O      0.125000000000     0.450000000000     0.750000000000     0          
O        O      0.047500000000     0.450000000000     0.690700000000     0          
O        O      0.127100000000     0.499880000000     0.838700000000     0          
O        O      0.453000000000     0.550000000000     0.832100000000     0          
O        O      0.000000000000     0.400020000000     0.761100000000     0          
O        O      0.407450000000     0.550000000000     0.919400000000     0          
O        O      0.375000000000     0.450000000000     0.750000000000     0          
O        O      0.452500000000     0.450000000000     0.690700000000     0          
O        O      0.372900000000     0.400120000000     0.838700000000     0          
O        O      0.438350000000     0.400000000000     0.000000000000     0          
O        O      0.372900000000     0.499880000000     0.838700000000     0          
O        O      0.061650000000     0.500000000000     0.000000000000     0          
O        O      0.127100000000     0.400120000000     0.838700000000     0          
O        O      0.372900000000     0.500120000000     0.161300000000     0          
O        O      0.127100000000     0.599880000000     0.161300000000     0          
O        O      0.250000000000     0.550000000000     0.557100000000     0          
O        O      0.297000000000     0.550000000000     0.667900000000     0          
O        O      0.250000000000     0.400020000000     0.738900000000     0          
O        O      0.311650000000     0.500000000000     0.500000000000     0          
O        O      0.342550000000     0.550000000000     0.580600000000     0          
O        O      0.297500000000     0.450000000000     0.809300000000     0          
O        O      0.377100000000     0.400120000000     0.661300000000     0          
O        O      0.203000000000     0.550000000000     0.667900000000     0          
O        O      0.250000000000     0.499980000000     0.738900000000     0          
O        O      0.188350000000     0.400000000000     0.500000000000     0          
O        O      0.157450000000     0.550000000000     0.580600000000     0          
O        O      0.202500000000     0.450000000000     0.809300000000     0          
O        O      0.122900000000     0.499880000000     0.661300000000     0          
O        O      0.250000000000     0.450000000000     0.442900000000     0          
O        O      0.297000000000     0.450000000000     0.332100000000     0          
O        O      0.250000000000     0.599980000000     0.261100000000     0          
O        O      0.342550000000     0.450000000000     0.419400000000     0          
O        O      0.297500000000     0.550000000000     0.190700000000     0          
O        O      0.377100000000     0.599880000000     0.338700000000     0          
O        O      0.203000000000     0.450000000000     0.332100000000     0          
O        O      0.250000000000     0.500020000000     0.261100000000     0          
O        O      0.157450000000     0.450000000000     0.419400000000     0          
O        O      0.202500000000     0.550000000000     0.190700000000     0          
O        O      0.122900000000     0.500120000000     0.338700000000     0          
O        O      0.188350000000     0.500000000000     0.500000000000     0          
O        O      0.122900000000     0.599880000000     0.338700000000     0          
O        O      0.311650000000     0.400000000000     0.500000000000     0          
O        O      0.377100000000     0.500120000000     0.338700000000     0          
O        O      0.122900000000     0.400120000000     0.661300000000     0          
O        O      0.377100000000     0.499880000000     0.661300000000     0          
O        O      0.000000000000     0.650000000000     0.057100000000     0          
O        O      0.047000000000     0.650000000000     0.167900000000     0          
O        O      0.000000000000     0.700020000000     0.238900000000     0          
O        O      0.061650000000     0.600000000000     0.000000000000     0          
O        O      0.092550000000     0.650000000000     0.080600000000     0          
O        O      0.125000000000     0.750000000000     0.250000000000     0          
O        O      0.047500000000     0.750000000000     0.309300000000     0          
O        O      0.127100000000     0.700120000000     0.161300000000     0          
O        O      0.453000000000     0.650000000000     0.167900000000     0          
O        O      0.000000000000     0.799980000000     0.238900000000     0          
O        O      0.438350000000     0.700000000000     0.000000000000     0          
O        O      0.407450000000     0.650000000000     0.080600000000     0          
O        O      0.375000000000     0.750000000000     0.250000000000     0          
O        O      0.452500000000     0.750000000000     0.309300000000     0          
O        O      0.372900000000     0.799880000000     0.161300000000     0          
O        O      0.000000000000     0.750000000000     0.942900000000     0          
O        O      0.047000000000     0.750000000000     0.832100000000     0          
O        O      0.000000000000     0.699980000000     0.761100000000     0          
O        O      0.092550000000     0.750000000000     0.919400000000     0          
O        O      0.125000000000     0.650000000000     0.750000000000     0          
O        O      0.047500000000     0.650000000000     0.690700000000     0          
O        O      0.127100000000     0.699880000000     0.838700000000     0          
O        O      0.453000000000     0.750000000000     0.832100000000     0          
O        O      0.000000000000     0.600020000000     0.761100000000     0          
O        O      0.407450000000     0.750000000000     0.919400000000     0          
O        O      0.375000000000     0.650000000000     0.750000000000     0          
O        O      0.452500000000     0.650000000000     0.690700000000     0          
O        O      0.372900000000     0.600120000000     0.838700000000     0          
O        O      0.438350000000     0.600000000000     0.000000000000     0          
O        O      0.372900000000     0.699880000000     0.838700000000     0          
O        O      0.061650000000     0.700000000000     0.000000000000     0          
O        O      0.127100000000     0.600120000000     0.838700000000     0          
O        O      0.372900000000     0.700120000000     0.161300000000     0          
O        O      0.127100000000     0.799880000000     0.161300000000     0          
O        O      0.250000000000     0.750000000000     0.557100000000     0          
O        O      0.297000000000     0.750000000000     0.667900000000     0          
O        O      0.250000000000     0.600020000000     0.738900000000     0          
O        O      0.311650000000     0.700000000000     0.500000000000     0          
O        O      0.342550000000     0.750000000000     0.580600000000     0          
O        O      0.297500000000     0.650000000000     0.809300000000     0          
O        O      0.377100000000     0.600120000000     0.661300000000     0          
O        O      0.203000000000     0.750000000000     0.667900000000     0          
O        O      0.250000000000     0.699980000000     0.738900000000     0          
O        O      0.188350000000     0.600000000000     0.500000000000     0          
O        O      0.157450000000     0.750000000000     0.580600000000     0          
O        O      0.202500000000     0.650000000000     0.809300000000     0          
O        O      0.122900000000     0.699880000000     0.661300000000     0          
O        O      0.250000000000     0.650000000000     0.442900000000     0          
O        O      0.297000000000     0.650000000000     0.332100000000     0          
O        O      0.250000000000     0.799980000000     0.261100000000     0          
O        O      0.342550000000     0.650000000000     0.419400000000     0          
O        O      0.297500000000     0.750000000000     0.190700000000     0          
O        O      0.377100000000     0.799880000000     0.338700000000     0          
O        O      0.203000000000     0.650000000000     0.332100000000     0          
O        O      0.250000000000     0.700020000000     0.261100000000     0          
O        O      0.157450000000     0.650000000000     0.419400000000     0          
O        O      0.202500000000     0.750000000000     0.190700000000     0          
O        O      0.122900000000     0.700120000000     0.338700000000     0          
O        O      0.188350000000     0.700000000000     0.500000000000     0          
O        O      0.122900000000     0.799880000000     0.338700000000     0          
O        O      0.311650000000     0.600000000000     0.500000000000     0          
O        O      0.377100000000     0.700120000000     0.338700000000     0          
O        O      0.122900000000     0.600120000000     0.661300000000     0          
O        O      0.377100000000     0.699880000000     0.661300000000     0          
O        O      0.000000000000     0.850000000000     0.057100000000     0          
O        O      0.047000000000     0.850000000000     0.167900000000     0          
O        O      0.000000000000     0.900020000000     0.238900000000     0          
O        O      0.061650000000     0.800000000000     0.000000000000     0          
O        O      0.092550000000     0.850000000000     0.080600000000     0          
O        O      0.125000000000     0.950000000000     0.250000000000     0          
O        O      0.047500000000     0.950000000000     0.309300000000     0          
O        O      0.127100000000     0.900120000000     0.161300000000     0          
O        O      0.453000000000     0.850000000000     0.167900000000     0          
O        O      0.000000000000     0.999980000000     0.238900000000     0          
O        O      0.438350000000     0.900000000000     0.000000000000     0          
O        O      0.407450000000     0.850000000000     0.080600000000     0          
O        O      0.375000000000     0.950000000000     0.250000000000     0          
O        O      0.452500000000     0.950000000000     0.309300000000     0          
O        O      0.372900000000     0.999880000000     0.161300000000     0          
O        O      0.000000000000     0.950000000000     0.942900000000     0          
O        O      0.047000000000     0.950000000000     0.832100000000     0          
O        O      0.000000000000     0.899980000000     0.761100000000     0          
O        O      0.092550000000     0.950000000000     0.919400000000     0          
O        O      0.125000000000     0.850000000000     0.750000000000     0          
O        O      0.047500000000     0.850000000000     0.690700000000     0          
O        O      0.127100000000     0.899880000000     0.838700000000     0          
O        O      0.453000000000     0.950000000000     0.832100000000     0          
O        O      0.000000000000     0.800020000000     0.761100000000     0          
O        O      0.407450000000     0.950000000000     0.919400000000     0          
O        O      0.375000000000     0.850000000000     0.750000000000     0          
O        O      0.452500000000     0.850000000000     0.690700000000     0          
O        O      0.372900000000     0.800120000000     0.838700000000     0          
O        O      0.438350000000     0.800000000000     0.000000000000     0          
O        O      0.372900000000     0.899880000000     0.838700000000     0          
O        O      0.061650000000     0.900000000000     0.000000000000     0          
O        O      0.127100000000     0.800120000000     0.838700000000     0          
O        O      0.372900000000     0.900120000000     0.161300000000     0          
O        O      0.127100000000     0.999880000000     0.161300000000     0          
O        O      0.250000000000     0.950000000000     0.557100000000     0          
O        O      0.297000000000     0.950000000000     0.667900000000     0          
O        O      0.250000000000     0.800020000000     0.738900000000     0          
O        O      0.311650000000     0.900000000000     0.500000000000     0          
O        O      0.342550000000     0.950000000000     0.580600000000     0          
O        O      0.297500000000     0.850000000000     0.809300000000     0          
O        O      0.377100000000     0.800120000000     0.661300000000     0          
O        O      0.203000000000     0.950000000000     0.667900000000     0          
O        O      0.250000000000     0.899980000000     0.738900000000     0          
O        O      0.188350000000     0.800000000000     0.500000000000     0          
O        O      0.157450000000     0.950000000000     0.580600000000     0          
O        O      0.202500000000     0.850000000000     0.809300000000     0          
O        O      0.122900000000     0.899880000000     0.661300000000     0          
O        O      0.250000000000     0.850000000000     0.442900000000     0          
O        O      0.297000000000     0.850000000000     0.332100000000     0          
O        O      0.250000000000     0.999980000000     0.261100000000     0          
O        O      0.342550000000     0.850000000000     0.419400000000     0          
O        O      0.297500000000     0.950000000000     0.190700000000     0          
O        O      0.377100000000     0.999880000000     0.338700000000     0          
O        O      0.203000000000     0.850000000000     0.332100000000     0          
O        O      0.250000000000     0.900020000000     0.261100000000     0          
O        O      0.157450000000     0.850000000000     0.419400000000     0          
O        O      0.202500000000     0.950000000000     0.190700000000     0          
O        O      0.122900000000     0.900120000000     0.338700000000     0          
O        O      0.188350000000     0.900000000000     0.500000000000     0          
O        O      0.122900000000     0.999880000000     0.338700000000     0          
O        O      0.311650000000     0.800000000000     0.500000000000     0          
O        O      0.377100000000     0.900120000000     0.338700000000     0          
O        O      0.122900000000     0.800120000000     0.661300000000     0          
O        O      0.377100000000     0.899880000000     0.661300000000     0          
O        O      0.500000000000     0.050000000000     0.057100000000     0          
O        O      0.547000000000     0.050000000000     0.167900000000     0          
O        O      0.500000000000     0.100020000000     0.238900000000     0          
O        O      0.561650000000     0.000000000000     0.000000000000     0          
O        O      0.592550000000     0.050000000000     0.080600000000     0          
O        O      0.625000000000     0.150000000000     0.250000000000     0          
O        O      0.547500000000     0.150000000000     0.309300000000     0          
O        O      0.627100000000     0.100120000000     0.161300000000     0          
O        O      0.953000000000     0.050000000000     0.167900000000     0          
O        O      0.500000000000     0.199980000000     0.238900000000     0          
O        O      0.938350000000     0.100000000000     0.000000000000     0          
O        O      0.907450000000     0.050000000000     0.080600000000     0          
O        O      0.875000000000     0.150000000000     0.250000000000     0          
O        O      0.952500000000     0.150000000000     0.309300000000     0          
O        O      0.872900000000     0.199880000000     0.161300000000     0          
O        O      0.500000000000     0.150000000000     0.942900000000     0          
O        O      0.547000000000     0.150000000000     0.832100000000     0          
O        O      0.500000000000     0.099980000000     0.761100000000     0          
O        O      0.592550000000     0.150000000000     0.919400000000     0          
O        O      0.625000000000     0.050000000000     0.750000000000     0          
O        O      0.547500000000     0.050000000000     0.690700000000     0          
O        O      0.627100000000     0.099880000000     0.838700000000     0          
O        O      0.953000000000     0.150000000000     0.832100000000     0          
O        O      0.500000000000     0.000020000000     0.761100000000     0          
O        O      0.907450000000     0.150000000000     0.919400000000     0          
O        O      0.875000000000     0.050000000000     0.750000000000     0          
O        O      0.952500000000     0.050000000000     0.690700000000     0          
O        O      0.872900000000     0.000120000000     0.838700000000     0          
O        O      0.938350000000     0.000000000000     0.000000000000     0          
O        O      0.872900000000     0.099880000000     0.838700000000     0          
O        O      0.561650000000     0.100000000000     0.000000000000     0          
O        O      0.627100000000     0.000120000000     0.838700000000     0          
O        O      0.872900000000     0.100120000000     0.161300000000     0          
O        O      0.627100000000     0.199880000000     0.161300000000     0          
O        O      0.750000000000     0.150000000000     0.557100000000     0          
O        O      0.797000000000     0.150000000000     0.667900000000     0          
O        O      0.750000000000     0.000020000000     0.738900000000     0          
O        O      0.811650000000     0.100000000000     0.500000000000     0          
O        O      0.842550000000     0.150000000000     0.580600000000     0          
O        O      0.797500000000     0.050000000000     0.809300000000     0          
O        O      0.877100000000     0.000120000000     0.661300000000     0          
O        O      0.703000000000     0.150000000000     0.667900000000     0          
O        O      0.750000000000     0.099980000000     0.738900000000     0          
O        O      0.688350000000     0.000000000000     0.500000000000     0          
O        O      0.657450000000     0.150000000000     0.580600000000     0          
O        O      0.702500000000     0.050000000000     0.809300000000     0          
O        O      0.622900000000     0.099880000000     0.661300000000     0          
O        O      0.750000000000     0.050000000000     0.442900000000     0          
O        O      0.797000000000     0.050000000000     0.332100000000     0          
O        O      0.750000000000     0.199980000000     0.261100000000     0          
O        O      0.842550000000     0.050000000000     0.419400000000     0          
O        O      0.797500000000     0.150000000000     0.190700000000     0          
O        O      0.877100000000     0.199880000000     0.338700000000     0          
O        O      0.703000000000     0.050000000000     0.332100000000     0          
O        O      0.750000000000     0.100020000000     0.261100000000     0          
O        O      0.657450000000     0.050000000000     0.419400000000     0          
O        O      0.702500000000     0.150000000000     0.190700000000     0          
O        O      0.622900000000     0.100120000000     0.338700000000     0          
O        O      0.688350000000     0.100000000000     0.500000000000     0          
O        O      0.622900000000     0.199880000000     0.338700000000     0          
O        O      0.811650000000     0.000000000000     0.500000000000     0          
O        O      0.877100000000     0.100120000000     0.338700000000     0          
O        O      0.622900000000     0.000120000000     0.661300000000     0          
O        O      0.877100000000     0.099880000000     0.661300000000     0          
O        O      0.500000000000     0.250000000000     0.057100000000     0          
O        O      0.547000000000     0.250000000000     0.167900000000     0          
O        O      0.500000000000     0.300020000000     0.238900000000     0          
O        O      0.561650000000     0.200000000000     0.000000000000     0          
O        O      0.592550000000     0.250000000000     0.080600000000     0          
O        O      0.625000000000     0.350000000000     0.250000000000     0          
O        O      0.547500000000     0.350000000000     0.309300000000     0          
O        O      0.627100000000     0.300120000000     0.161300000000     0          
O        O      0.953000000000     0.250000000000     0.167900000000     0          
O        O      0.500000000000     0.399980000000     0.238900000000     0          
O        O      0.938350000000     0.300000000000     0.000000000000     0          
O        O      0.907450000000     0.250000000000     0.080600000000     0          
O        O      0.875000000000     0.350000000000     0.250000000000     0          
O        O      0.952500000000     0.350000000000     0.309300000000     0          
O        O      0.872900000000     0.399880000000     0.161300000000     0          
O        O      0.500000000000     0.350000000000     0.942900000000     0          
O        O      0.547000000000     0.350000000000     0.832100000000     0          
O        O      0.500000000000     0.299980000000     0.761100000000     0          
O        O      0.592550000000     0.350000000000     0.919400000000     0          
O        O      0.625000000000     0.250000000000     0.750000000000     0          
O        O      0.547500000000     0.250000000000     0.690700000000     0          
O        O      0.627100000000     0.299880000000     0.838700000000     0          
O        O      0.953000000000     0.350000000000     0.832100000000     0          
O        O      0.500000000000     0.200020000000     0.761100000000     0          
O        O      0.907450000000     0.350000000000     0.919400000000     0          
O        O      0.875000000000     0.250000000000     0.750000000000     0          
O        O      0.952500000000     0.250000000000     0.690700000000     0          
O        O      0.872900000000     0.200120000000     0.838700000000     0          
O        O      0.938350000000     0.200000000000     0.000000000000     0          
O        O      0.872900000000     0.299880000000     0.838700000000     0          
O        O      0.561650000000     0.300000000000     0.000000000000     0          
O        O      0.627100000000     0.200120000000     0.838700000000     0          
O        O      0.872900000000     0.300120000000     0.161300000000     0          
O        O      0.627100000000     0.399880000000     0.161300000000     0          
O        O      0.750000000000     0.350000000000     0.557100000000     0          
O        O      0.797000000000     0.350000000000     0.667900000000     0          
O        O      0.750000000000     0.200020000000     0.738900000000     0          
O        O      0.811650000000     0.300000000000     0.500000000000     0          
O        O      0.842550000000     0.350000000000     0.580600000000     0          
O        O      0.797500000000     0.250000000000     0.809300000000     0          
O        O      0.877100000000     0.200120000000     0.661300000000     0          
O        O      0.703000000000     0.350000000000     0.667900000000     0          
O        O      0.750000000000     0.299980000000     0.738900000000     0          
O        O      0.688350000000     0.200000000000     0.500000000000     0          
O        O      0.657450000000     0.350000000000     0.580600000000     0          
O        O      0.702500000000     0.250000000000     0.809300000000     0          
O        O      0.622900000000     0.299880000000     0.661300000000     0          
O        O      0.750000000000     0.250000000000     0.442900000000     0          
O        O      0.797000000000     0.250000000000     0.332100000000     0          
O        O      0.750000000000     0.399980000000     0.261100000000     0          
O        O      0.842550000000     0.250000000000     0.419400000000     0          
O        O      0.797500000000     0.350000000000     0.190700000000     0          
O        O      0.877100000000     0.399880000000     0.338700000000     0          
O        O      0.703000000000     0.250000000000     0.332100000000     0          
O        O      0.750000000000     0.300020000000     0.261100000000     0          
O        O      0.657450000000     0.250000000000     0.419400000000     0          
O        O      0.702500000000     0.350000000000     0.190700000000     0          
O        O      0.622900000000     0.300120000000     0.338700000000     0          
O        O      0.688350000000     0.300000000000     0.500000000000     0          
O        O      0.622900000000     0.399880000000     0.338700000000     0          
O        O      0.811650000000     0.200000000000     0.500000000000     0          
O        O      0.877100000000     0.300120000000     0.338700000000     0          
O        O      0.622900000000     0.200120000000     0.661300000000     0          
O        O      0.877100000000     0.299880000000     0.661300000000     0          
O        O      0.500000000000     0.450000000000     0.057100000000     0          
O        O      0.547000000000     0.450000000000     0.167900000000     0          
O        O      0.500000000000     0.500020000000     0.238900000000     0          
O        O      0.561650000000     0.400000000000     0.000000000000     0          
O        O      0.592550000000     0.450000000000     0.080600000000     0          
O        O      0.625000000000     0.550000000000     0.250000000000     0          
O        O      0.547500000000     0.550000000000     0.309300000000     0          
O        O      0.627100000000     0.500120000000     0.161300000000     0          
O        O      0.953000000000     0.450000000000     0.167900000000     0          
O        O      0.500000000000     0.599980000000     0.238900000000     0          
O        O      0.938350000000     0.500000000000     0.000000000000     0          
O        O      0.907450000000     0.450000000000     0.080600000000     0          
O        O      0.875000000000     0.550000000000     0.250000000000     0          
O        O      0.952500000000     0.550000000000     0.309300000000     0          
O        O      0.872900000000     0.599880000000     0.161300000000     0          
O        O      0.500000000000     0.550000000000     0.942900000000     0          
O        O      0.547000000000     0.550000000000     0.832100000000     0          
O        O      0.500000000000     0.499980000000     0.761100000000     0          
O        O      0.592550000000     0.550000000000     0.919400000000     0          
O        O      0.625000000000     0.450000000000     0.750000000000     0          
O        O      0.547500000000     0.450000000000     0.690700000000     0          
O        O      0.627100000000     0.499880000000     0.838700000000     0          
O        O      0.953000000000     0.550000000000     0.832100000000     0          
O        O      0.500000000000     0.400020000000     0.761100000000     0          
O        O      0.907450000000     0.550000000000     0.919400000000     0          
O        O      0.875000000000     0.450000000000     0.750000000000     0          
O        O      0.952500000000     0.450000000000     0.690700000000     0          
O        O      0.872900000000     0.400120000000     0.838700000000     0          
O        O      0.938350000000     0.400000000000     0.000000000000     0          
O        O      0.872900000000     0.499880000000     0.838700000000     0          
O        O      0.561650000000     0.500000000000     0.000000000000     0          
O        O      0.627100000000     0.400120000000     0.838700000000     0          
O        O      0.872900000000     0.500120000000     0.161300000000     0          
O        O      0.627100000000     0.599880000000     0.161300000000     0          
O        O      0.750000000000     0.550000000000     0.557100000000     0          
O        O      0.797000000000     0.550000000000     0.667900000000     0          
O        O      0.750000000000     0.400020000000     0.738900000000     0          
O        O      0.811650000000     0.500000000000     0.500000000000     0          
O        O      0.842550000000     0.550000000000     0.580600000000     0          
O        O      0.797500000000     0.450000000000     0.809300000000     0          
O        O      0.877100000000     0.400120000000     0.661300000000     0          
O        O      0.703000000000     0.550000000000     0.667900000000     0          
O        O      0.750000000000     0.499980000000     0.738900000000     0          
O        O      0.688350000000     0.400000000000     0.500000000000     0          
O        O      0.657450000000     0.550000000000     0.580600000000     0          
O        O      0.702500000000     0.450000000000     0.809300000000     0          
O        O      0.622900000000     0.499880000000     0.661300000000     0          
O        O      0.750000000000     0.450000000000     0.442900000000     0          
O        O      0.797000000000     0.450000000000     0.332100000000     0          
O        O      0.750000000000     0.599980000000     0.261100000000     0          
O        O      0.842550000000     0.450000000000     0.419400000000     0          
O        O      0.797500000000     0.550000000000     0.190700000000     0          
O        O      0.877100000000     0.599880000000     0.338700000000     0          
O        O      0.703000000000     0.450000000000     0.332100000000     0          
O        O      0.750000000000     0.500020000000     0.261100000000     0          
O        O      0.657450000000     0.450000000000     0.419400000000     0          
O        O      0.702500000000     0.550000000000     0.190700000000     0          
O        O      0.622900000000     0.500120000000     0.338700000000     0          
O        O      0.688350000000     0.500000000000     0.500000000000     0          
O        O      0.622900000000     0.599880000000     0.338700000000     0          
O        O      0.811650000000     0.400000000000     0.500000000000     0          
O        O      0.877100000000     0.500120000000     0.338700000000     0          
O        O      0.622900000000     0.400120000000     0.661300000000     0          
O        O      0.877100000000     0.499880000000     0.661300000000     0          
O        O      0.500000000000     0.650000000000     0.057100000000     0          
O        O      0.547000000000     0.650000000000     0.167900000000     0          
O        O      0.500000000000     0.700020000000     0.238900000000     0          
O        O      0.561650000000     0.600000000000     0.000000000000     0          
O        O      0.592550000000     0.650000000000     0.080600000000     0          
O        O      0.625000000000     0.750000000000     0.250000000000     0          
O        O      0.547500000000     0.750000000000     0.309300000000     0          
O        O      0.627100000000     0.700120000000     0.161300000000     0          
O        O      0.953000000000     0.650000000000     0.167900000000     0          
O        O      0.500000000000     0.799980000000     0.238900000000     0          
O        O      0.938350000000     0.700000000000     0.000000000000     0          
O        O      0.907450000000     0.650000000000     0.080600000000     0          
O        O      0.875000000000     0.750000000000     0.250000000000     0          
O        O      0.952500000000     0.750000000000     0.309300000000     0          
O        O      0.872900000000     0.799880000000     0.161300000000     0          
O        O      0.500000000000     0.750000000000     0.942900000000     0          
O        O      0.547000000000     0.750000000000     0.832100000000     0          
O        O      0.500000000000     0.699980000000     0.761100000000     0          
O        O      0.592550000000     0.750000000000     0.919400000000     0          
O        O      0.625000000000     0.650000000000     0.750000000000     0          
O        O      0.547500000000     0.650000000000     0.690700000000     0          
O        O      0.627100000000     0.699880000000     0.838700000000     0          
O        O      0.953000000000     0.750000000000     0.832100000000     0          
O        O      0.500000000000     0.600020000000     0.761100000000     0          
O        O      0.907450000000     0.750000000000     0.919400000000     0          
O        O      0.875000000000     0.650000000000     0.750000000000     0          
O        O      0.952500000000     0.650000000000     0.690700000000     0          
O        O      0.872900000000     0.600120000000     0.838700000000     0          
O        O      0.938350000000     0.600000000000     0.000000000000     0          
O        O      0.872900000000     0.699880000000     0.838700000000     0          
O        O      0.561650000000     0.700000000000     0.000000000000     0          
O        O      0.627100000000     0.600120000000     0.838700000000     0          
O        O      0.872900000000     0.700120000000     0.161300000000     0          
O        O      0.627100000000     0.799880000000     0.161300000000     0          
O        O      0.750000000000     0.750000000000     0.557100000000     0          
O        O      0.797000000000     0.750000000000     0.667900000000     0          
O        O      0.750000000000     0.600020000000     0.738900000000     0          
O        O      0.811650000000     0.700000000000     0.500000000000     0          
O        O      0.842550000000     0.750000000000     0.580600000000     0          
O        O      0.797500000000     0.650000000000     0.809300000000     0          
O        O      0.877100000000     0.600120000000     0.661300000000     0          
O        O      0.703000000000     0.750000000000     0.667900000000     0          
O        O      0.750000000000     0.699980000000     0.738900000000     0          
O        O      0.688350000000     0.600000000000     0.500000000000     0          
O        O      0.657450000000     0.750000000000     0.580600000000     0          
O        O      0.702500000000     0.650000000000     0.809300000000     0          
O        O      0.622900000000     0.699880000000     0.661300000000     0          
O        O      0.750000000000     0.650000000000     0.442900000000     0          
O        O      0.797000000000     0.650000000000     0.332100000000     0          
O        O      0.750000000000     0.799980000000     0.261100000000     0          
O        O      0.842550000000     0.650000000000     0.419400000000     0          
O        O      0.797500000000     0.750000000000     0.190700000000     0          
O        O      0.877100000000     0.799880000000     0.338700000000     0          
O        O      0.703000000000     0.650000000000     0.332100000000     0          
O        O      0.750000000000     0.700020000000     0.261100000000     0          
O        O      0.657450000000     0.650000000000     0.419400000000     0          
O        O      0.702500000000     0.750000000000     0.190700000000     0          
O        O      0.622900000000     0.700120000000     0.338700000000     0          
O        O      0.688350000000     0.700000000000     0.500000000000     0          
O        O      0.622900000000     0.799880000000     0.338700000000     0          
O        O      0.811650000000     0.600000000000     0.500000000000     0          
O        O      0.877100000000     0.700120000000     0.338700000000     0          
O        O      0.622900000000     0.600120000000     0.661300000000     0          
O        O      0.877100000000     0.699880000000     0.661300000000     0          
O        O      0.500000000000     0.850000000000     0.057100000000     0          
O        O      0.547000000000     0.850000000000     0.167900000000     0          
O        O      0.500000000000     0.900020000000     0.238900000000     0          
O        O      0.561650000000     0.800000000000     0.000000000000     0          
O        O      0.592550000000     0.850000000000     0.080600000000     0          
O        O      0.625000000000     0.950000000000     0.250000000000     0          
O        O      0.547500000000     0.950000000000     0.309300000000     0          
O        O      0.627100000000     0.900120000000     0.161300000000     0          
O        O      0.953000000000     0.850000000000     0.167900000000     0          
O        O      0.500000000000     0.999980000000     0.238900000000     0          
O        O      0.938350000000     0.900000000000     0.000000000000     0          
O        O      0.907450000000     0.850000000000     0.080600000000     0          
O        O      0.875000000000     0.950000000000     0.250000000000     0          
O        O      0.952500000000     0.950000000000     0.309300000000     0          
O        O      0.872900000000     0.999880000000     0.161300000000     0          
O        O      0.500000000000     0.950000000000     0.942900000000     0          
O        O      0.547000000000     0.950000000000     0.832100000000     0          
O        O      0.500000000000     0.899980000000     0.761100000000     0          
O        O      0.592550000000     0.950000000000     0.919400000000     0          
O        O      0.625000000000     0.850000000000     0.750000000000     0          
O        O      0.547500000000     0.850000000000     0.690700000000     0          
O        O      0.627100000000     0.899880000000     0.838700000000     0          
O        O      0.953000000000     0.950000000000     0.832100000000     0          
O        O      0.500000000000     0.800020000000     0.761100000000     0          
O        O      0.907450000000     0.950000000000     0.919400000000     0          
O        O      0.875000000000     0.850000000000     0.750000000000     0          
O        O      0.952500000000     0.850000000000     0.690700000000     0          
O        O      0.872900000000     0.800120000000     0.838700000000     0          
O        O      0.938350000000     0.800000000000     0.000000000000     0          
O        O      0.872900000000     0.899880000000     0.838700000000     0          
O        O      0.561650000000     0.900000000000     0.000000000000     0          
O        O      0.627100000000     0.800120000000     0.838700000000     0          
O        O      0.872900000000     0.900120000000     0.161300000000     0          
O        O      0.627100000000     0.999880000000     0.161300000000     0          
O        O      0.750000000000     0.950000000000     0.557100000000     0          
O        O      0.797000000000     0.950000000000     0.667900000000     0          
O        O      0.750000000000     0.800020000000     0.738900000000     0          
O        O      0.811650000000     0.900000000000     0.500000000000     0          
O        O      0.842550000000     0.950000000000     0.580600000000     0          
O        O      0.797500000000     0.850000000000     0.809300000000     0          
O        O      0.877100000000     0.800120000000     0.661300000000     0          
O        O      0.703000000000     0.950000000000     0.667900000000     0          
O        O      0.750000000000     0.899980000000     0.738900000000     0          
O        O      0.688350000000     0.800000000000     0.500000000000     0          
O        O      0.657450000000     0.950000000000     0.580600000000     0          
O        O      0.702500000000     0.850000000000     0.809300000000     0          
O        O      0.622900000000     0.899880000000     0.661300000000     0          
O        O      0.750000000000     0.850000000000     0.442900000000     0          
O        O      0.797000000000     0.850000000000     0.332100000000     0          
O        O      0.750000000000     0.999980000000     0.261100000000     0          
O        O      0.842550000000     0.850000000000     0.419400000000     0          
O        O      0.797500000000     0.950000000000     0.190700000000     0          
O        O      0.877100000000     0.999880000000     0.338700000000     0          
O        O      0.703000000000     0.850000000000     0.332100000000     0          
O        O      0.750000000000     0.900020000000     0.261100000000     0          
O        O      0.657450000000     0.850000000000     0.419400000000     0          
O        O      0.702500000000     0.950000000000     0.190700000000     0          
O        O      0.622900000000     0.900120000000     0.338700000000     0          
O        O      0.688350000000     0.900000000000     0.500000000000     0          
O        O      0.622900000000     0.999880000000     0.338700000000     0          
O        O      0.811650000000     0.800000000000     0.500000000000     0          
O        O      0.877100000000     0.900120000000     0.338700000000     0          
O        O      0.622900000000     0.800120000000     0.661300000000     0          
O        O      0.877100000000     0.899880000000     0.661300000000     0          


