data_zeolite

_audit_creation_method RASPA-1.0
_audit_creation_date 2021-6-6
_audit_author_name ''

_cell_length_a    33.564
_cell_length_b    33.564
_cell_length_c    26.295
_cell_angle_alpha 90
_cell_angle_beta  90
_cell_angle_gamma 120
_cell_volume      25653.8

_symmetry_cell_setting          hexagonal
_symmetry_space_group_name_Hall 'P 1'
_symmetry_space_group_name_H-M  'P 1'
_symmetry_Int_Tables_number     1

_symmetry_equiv_pos_as_xyz 'x,y,z'

loop_
_atom_site_label
_atom_site_type_symbol
_atom_site_fract_x
_atom_site_fract_y
_atom_site_fract_z
_atom_site_charge
O        O      0.042275000000     0.173350000000     0.150000000000     0          
O        O      0.000000000000     0.094550000000     0.100000000000     0          
T        Si     0.029225000000     0.120150000000     0.150000000000     0          
O        O      0.131075000000     0.207725000000     0.150000000000     0          
O        O      0.094550000000     0.000000000000     0.000000000000     0          
T        Si     0.090925000000     0.220775000000     0.150000000000     0          
O        O      0.076650000000     0.118925000000     0.150000000000     0          
O        O      0.155450000000     0.155450000000     0.100000000000     0          
T        Si     0.129850000000     0.159075000000     0.150000000000     0          
O        O      0.000000000000     0.094550000000     0.000000000000     0          
O        O      0.094550000000     0.000000000000     0.100000000000     0          
O        O      0.155450000000     0.155450000000     0.000000000000     0          
O        O      0.173350000000     0.042275000000     0.050000000000     0          
T        Si     0.120150000000     0.029225000000     0.050000000000     0          
O        O      0.118925000000     0.076650000000     0.050000000000     0          
T        Si     0.159075000000     0.129850000000     0.050000000000     0          
O        O      0.207725000000     0.131075000000     0.050000000000     0          
T        Si     0.220775000000     0.090925000000     0.050000000000     0          
O        O      0.042275000000     0.173350000000     0.350000000000     0          
O        O      0.000000000000     0.094550000000     0.300000000000     0          
T        Si     0.029225000000     0.120150000000     0.350000000000     0          
O        O      0.131075000000     0.207725000000     0.350000000000     0          
O        O      0.094550000000     0.000000000000     0.200000000000     0          
T        Si     0.090925000000     0.220775000000     0.350000000000     0          
O        O      0.076650000000     0.118925000000     0.350000000000     0          
O        O      0.155450000000     0.155450000000     0.300000000000     0          
T        Si     0.129850000000     0.159075000000     0.350000000000     0          
O        O      0.000000000000     0.094550000000     0.200000000000     0          
O        O      0.094550000000     0.000000000000     0.300000000000     0          
O        O      0.155450000000     0.155450000000     0.200000000000     0          
O        O      0.173350000000     0.042275000000     0.250000000000     0          
T        Si     0.120150000000     0.029225000000     0.250000000000     0          
O        O      0.118925000000     0.076650000000     0.250000000000     0          
T        Si     0.159075000000     0.129850000000     0.250000000000     0          
O        O      0.207725000000     0.131075000000     0.250000000000     0          
T        Si     0.220775000000     0.090925000000     0.250000000000     0          
O        O      0.042275000000     0.173350000000     0.550000000000     0          
O        O      0.000000000000     0.094550000000     0.500000000000     0          
T        Si     0.029225000000     0.120150000000     0.550000000000     0          
O        O      0.131075000000     0.207725000000     0.550000000000     0          
O        O      0.094550000000     0.000000000000     0.400000000000     0          
T        Si     0.090925000000     0.220775000000     0.550000000000     0          
O        O      0.076650000000     0.118925000000     0.550000000000     0          
O        O      0.155450000000     0.155450000000     0.500000000000     0          
T        Si     0.129850000000     0.159075000000     0.550000000000     0          
O        O      0.000000000000     0.094550000000     0.400000000000     0          
O        O      0.094550000000     0.000000000000     0.500000000000     0          
O        O      0.155450000000     0.155450000000     0.400000000000     0          
O        O      0.173350000000     0.042275000000     0.450000000000     0          
T        Si     0.120150000000     0.029225000000     0.450000000000     0          
O        O      0.118925000000     0.076650000000     0.450000000000     0          
T        Si     0.159075000000     0.129850000000     0.450000000000     0          
O        O      0.207725000000     0.131075000000     0.450000000000     0          
T        Si     0.220775000000     0.090925000000     0.450000000000     0          
O        O      0.042275000000     0.173350000000     0.750000000000     0          
O        O      0.000000000000     0.094550000000     0.700000000000     0          
T        Si     0.029225000000     0.120150000000     0.750000000000     0          
O        O      0.131075000000     0.207725000000     0.750000000000     0          
O        O      0.094550000000     0.000000000000     0.600000000000     0          
T        Si     0.090925000000     0.220775000000     0.750000000000     0          
O        O      0.076650000000     0.118925000000     0.750000000000     0          
O        O      0.155450000000     0.155450000000     0.700000000000     0          
T        Si     0.129850000000     0.159075000000     0.750000000000     0          
O        O      0.000000000000     0.094550000000     0.600000000000     0          
O        O      0.094550000000     0.000000000000     0.700000000000     0          
O        O      0.155450000000     0.155450000000     0.600000000000     0          
O        O      0.173350000000     0.042275000000     0.650000000000     0          
T        Si     0.120150000000     0.029225000000     0.650000000000     0          
O        O      0.118925000000     0.076650000000     0.650000000000     0          
T        Si     0.159075000000     0.129850000000     0.650000000000     0          
O        O      0.207725000000     0.131075000000     0.650000000000     0          
T        Si     0.220775000000     0.090925000000     0.650000000000     0          
O        O      0.042275000000     0.173350000000     0.950000000000     0          
O        O      0.000000000000     0.094550000000     0.900000000000     0          
T        Si     0.029225000000     0.120150000000     0.950000000000     0          
O        O      0.131075000000     0.207725000000     0.950000000000     0          
O        O      0.094550000000     0.000000000000     0.800000000000     0          
T        Si     0.090925000000     0.220775000000     0.950000000000     0          
O        O      0.076650000000     0.118925000000     0.950000000000     0          
O        O      0.155450000000     0.155450000000     0.900000000000     0          
T        Si     0.129850000000     0.159075000000     0.950000000000     0          
O        O      0.000000000000     0.094550000000     0.800000000000     0          
O        O      0.094550000000     0.000000000000     0.900000000000     0          
O        O      0.155450000000     0.155450000000     0.800000000000     0          
O        O      0.173350000000     0.042275000000     0.850000000000     0          
T        Si     0.120150000000     0.029225000000     0.850000000000     0          
O        O      0.118925000000     0.076650000000     0.850000000000     0          
T        Si     0.159075000000     0.129850000000     0.850000000000     0          
O        O      0.207725000000     0.131075000000     0.850000000000     0          
T        Si     0.220775000000     0.090925000000     0.850000000000     0          
O        O      0.042275000000     0.423350000000     0.150000000000     0          
O        O      0.000000000000     0.344550000000     0.100000000000     0          
T        Si     0.029225000000     0.370150000000     0.150000000000     0          
O        O      0.131075000000     0.457725000000     0.150000000000     0          
O        O      0.094550000000     0.250000000000     0.000000000000     0          
T        Si     0.090925000000     0.470775000000     0.150000000000     0          
O        O      0.076650000000     0.368925000000     0.150000000000     0          
O        O      0.155450000000     0.405450000000     0.100000000000     0          
T        Si     0.129850000000     0.409075000000     0.150000000000     0          
O        O      0.000000000000     0.344550000000     0.000000000000     0          
O        O      0.094550000000     0.250000000000     0.100000000000     0          
O        O      0.155450000000     0.405450000000     0.000000000000     0          
O        O      0.173350000000     0.292275000000     0.050000000000     0          
T        Si     0.120150000000     0.279225000000     0.050000000000     0          
O        O      0.118925000000     0.326650000000     0.050000000000     0          
T        Si     0.159075000000     0.379850000000     0.050000000000     0          
O        O      0.207725000000     0.381075000000     0.050000000000     0          
T        Si     0.220775000000     0.340925000000     0.050000000000     0          
O        O      0.042275000000     0.423350000000     0.350000000000     0          
O        O      0.000000000000     0.344550000000     0.300000000000     0          
T        Si     0.029225000000     0.370150000000     0.350000000000     0          
O        O      0.131075000000     0.457725000000     0.350000000000     0          
O        O      0.094550000000     0.250000000000     0.200000000000     0          
T        Si     0.090925000000     0.470775000000     0.350000000000     0          
O        O      0.076650000000     0.368925000000     0.350000000000     0          
O        O      0.155450000000     0.405450000000     0.300000000000     0          
T        Si     0.129850000000     0.409075000000     0.350000000000     0          
O        O      0.000000000000     0.344550000000     0.200000000000     0          
O        O      0.094550000000     0.250000000000     0.300000000000     0          
O        O      0.155450000000     0.405450000000     0.200000000000     0          
O        O      0.173350000000     0.292275000000     0.250000000000     0          
T        Si     0.120150000000     0.279225000000     0.250000000000     0          
O        O      0.118925000000     0.326650000000     0.250000000000     0          
T        Si     0.159075000000     0.379850000000     0.250000000000     0          
O        O      0.207725000000     0.381075000000     0.250000000000     0          
T        Si     0.220775000000     0.340925000000     0.250000000000     0          
O        O      0.042275000000     0.423350000000     0.550000000000     0          
O        O      0.000000000000     0.344550000000     0.500000000000     0          
T        Si     0.029225000000     0.370150000000     0.550000000000     0          
O        O      0.131075000000     0.457725000000     0.550000000000     0          
O        O      0.094550000000     0.250000000000     0.400000000000     0          
T        Si     0.090925000000     0.470775000000     0.550000000000     0          
O        O      0.076650000000     0.368925000000     0.550000000000     0          
O        O      0.155450000000     0.405450000000     0.500000000000     0          
T        Si     0.129850000000     0.409075000000     0.550000000000     0          
O        O      0.000000000000     0.344550000000     0.400000000000     0          
O        O      0.094550000000     0.250000000000     0.500000000000     0          
O        O      0.155450000000     0.405450000000     0.400000000000     0          
O        O      0.173350000000     0.292275000000     0.450000000000     0          
T        Si     0.120150000000     0.279225000000     0.450000000000     0          
O        O      0.118925000000     0.326650000000     0.450000000000     0          
T        Si     0.159075000000     0.379850000000     0.450000000000     0          
O        O      0.207725000000     0.381075000000     0.450000000000     0          
T        Si     0.220775000000     0.340925000000     0.450000000000     0          
O        O      0.042275000000     0.423350000000     0.750000000000     0          
O        O      0.000000000000     0.344550000000     0.700000000000     0          
T        Si     0.029225000000     0.370150000000     0.750000000000     0          
O        O      0.131075000000     0.457725000000     0.750000000000     0          
O        O      0.094550000000     0.250000000000     0.600000000000     0          
T        Si     0.090925000000     0.470775000000     0.750000000000     0          
O        O      0.076650000000     0.368925000000     0.750000000000     0          
O        O      0.155450000000     0.405450000000     0.700000000000     0          
T        Si     0.129850000000     0.409075000000     0.750000000000     0          
O        O      0.000000000000     0.344550000000     0.600000000000     0          
O        O      0.094550000000     0.250000000000     0.700000000000     0          
O        O      0.155450000000     0.405450000000     0.600000000000     0          
O        O      0.173350000000     0.292275000000     0.650000000000     0          
T        Si     0.120150000000     0.279225000000     0.650000000000     0          
O        O      0.118925000000     0.326650000000     0.650000000000     0          
T        Si     0.159075000000     0.379850000000     0.650000000000     0          
O        O      0.207725000000     0.381075000000     0.650000000000     0          
T        Si     0.220775000000     0.340925000000     0.650000000000     0          
O        O      0.042275000000     0.423350000000     0.950000000000     0          
O        O      0.000000000000     0.344550000000     0.900000000000     0          
T        Si     0.029225000000     0.370150000000     0.950000000000     0          
O        O      0.131075000000     0.457725000000     0.950000000000     0          
O        O      0.094550000000     0.250000000000     0.800000000000     0          
T        Si     0.090925000000     0.470775000000     0.950000000000     0          
O        O      0.076650000000     0.368925000000     0.950000000000     0          
O        O      0.155450000000     0.405450000000     0.900000000000     0          
T        Si     0.129850000000     0.409075000000     0.950000000000     0          
O        O      0.000000000000     0.344550000000     0.800000000000     0          
O        O      0.094550000000     0.250000000000     0.900000000000     0          
O        O      0.155450000000     0.405450000000     0.800000000000     0          
O        O      0.173350000000     0.292275000000     0.850000000000     0          
T        Si     0.120150000000     0.279225000000     0.850000000000     0          
O        O      0.118925000000     0.326650000000     0.850000000000     0          
T        Si     0.159075000000     0.379850000000     0.850000000000     0          
O        O      0.207725000000     0.381075000000     0.850000000000     0          
T        Si     0.220775000000     0.340925000000     0.850000000000     0          
O        O      0.042275000000     0.673350000000     0.150000000000     0          
O        O      0.000000000000     0.594550000000     0.100000000000     0          
T        Si     0.029225000000     0.620150000000     0.150000000000     0          
O        O      0.131075000000     0.707725000000     0.150000000000     0          
O        O      0.094550000000     0.500000000000     0.000000000000     0          
T        Si     0.090925000000     0.720775000000     0.150000000000     0          
O        O      0.076650000000     0.618925000000     0.150000000000     0          
O        O      0.155450000000     0.655450000000     0.100000000000     0          
T        Si     0.129850000000     0.659075000000     0.150000000000     0          
O        O      0.000000000000     0.594550000000     0.000000000000     0          
O        O      0.094550000000     0.500000000000     0.100000000000     0          
O        O      0.155450000000     0.655450000000     0.000000000000     0          
O        O      0.173350000000     0.542275000000     0.050000000000     0          
T        Si     0.120150000000     0.529225000000     0.050000000000     0          
O        O      0.118925000000     0.576650000000     0.050000000000     0          
T        Si     0.159075000000     0.629850000000     0.050000000000     0          
O        O      0.207725000000     0.631075000000     0.050000000000     0          
T        Si     0.220775000000     0.590925000000     0.050000000000     0          
O        O      0.042275000000     0.673350000000     0.350000000000     0          
O        O      0.000000000000     0.594550000000     0.300000000000     0          
T        Si     0.029225000000     0.620150000000     0.350000000000     0          
O        O      0.131075000000     0.707725000000     0.350000000000     0          
O        O      0.094550000000     0.500000000000     0.200000000000     0          
T        Si     0.090925000000     0.720775000000     0.350000000000     0          
O        O      0.076650000000     0.618925000000     0.350000000000     0          
O        O      0.155450000000     0.655450000000     0.300000000000     0          
T        Si     0.129850000000     0.659075000000     0.350000000000     0          
O        O      0.000000000000     0.594550000000     0.200000000000     0          
O        O      0.094550000000     0.500000000000     0.300000000000     0          
O        O      0.155450000000     0.655450000000     0.200000000000     0          
O        O      0.173350000000     0.542275000000     0.250000000000     0          
T        Si     0.120150000000     0.529225000000     0.250000000000     0          
O        O      0.118925000000     0.576650000000     0.250000000000     0          
T        Si     0.159075000000     0.629850000000     0.250000000000     0          
O        O      0.207725000000     0.631075000000     0.250000000000     0          
T        Si     0.220775000000     0.590925000000     0.250000000000     0          
O        O      0.042275000000     0.673350000000     0.550000000000     0          
O        O      0.000000000000     0.594550000000     0.500000000000     0          
T        Si     0.029225000000     0.620150000000     0.550000000000     0          
O        O      0.131075000000     0.707725000000     0.550000000000     0          
O        O      0.094550000000     0.500000000000     0.400000000000     0          
T        Si     0.090925000000     0.720775000000     0.550000000000     0          
O        O      0.076650000000     0.618925000000     0.550000000000     0          
O        O      0.155450000000     0.655450000000     0.500000000000     0          
T        Si     0.129850000000     0.659075000000     0.550000000000     0          
O        O      0.000000000000     0.594550000000     0.400000000000     0          
O        O      0.094550000000     0.500000000000     0.500000000000     0          
O        O      0.155450000000     0.655450000000     0.400000000000     0          
O        O      0.173350000000     0.542275000000     0.450000000000     0          
T        Si     0.120150000000     0.529225000000     0.450000000000     0          
O        O      0.118925000000     0.576650000000     0.450000000000     0          
T        Si     0.159075000000     0.629850000000     0.450000000000     0          
O        O      0.207725000000     0.631075000000     0.450000000000     0          
T        Si     0.220775000000     0.590925000000     0.450000000000     0          
O        O      0.042275000000     0.673350000000     0.750000000000     0          
O        O      0.000000000000     0.594550000000     0.700000000000     0          
T        Si     0.029225000000     0.620150000000     0.750000000000     0          
O        O      0.131075000000     0.707725000000     0.750000000000     0          
O        O      0.094550000000     0.500000000000     0.600000000000     0          
T        Si     0.090925000000     0.720775000000     0.750000000000     0          
O        O      0.076650000000     0.618925000000     0.750000000000     0          
O        O      0.155450000000     0.655450000000     0.700000000000     0          
T        Si     0.129850000000     0.659075000000     0.750000000000     0          
O        O      0.000000000000     0.594550000000     0.600000000000     0          
O        O      0.094550000000     0.500000000000     0.700000000000     0          
O        O      0.155450000000     0.655450000000     0.600000000000     0          
O        O      0.173350000000     0.542275000000     0.650000000000     0          
T        Si     0.120150000000     0.529225000000     0.650000000000     0          
O        O      0.118925000000     0.576650000000     0.650000000000     0          
T        Si     0.159075000000     0.629850000000     0.650000000000     0          
O        O      0.207725000000     0.631075000000     0.650000000000     0          
T        Si     0.220775000000     0.590925000000     0.650000000000     0          
O        O      0.042275000000     0.673350000000     0.950000000000     0          
O        O      0.000000000000     0.594550000000     0.900000000000     0          
T        Si     0.029225000000     0.620150000000     0.950000000000     0          
O        O      0.131075000000     0.707725000000     0.950000000000     0          
O        O      0.094550000000     0.500000000000     0.800000000000     0          
T        Si     0.090925000000     0.720775000000     0.950000000000     0          
O        O      0.076650000000     0.618925000000     0.950000000000     0          
O        O      0.155450000000     0.655450000000     0.900000000000     0          
T        Si     0.129850000000     0.659075000000     0.950000000000     0          
O        O      0.000000000000     0.594550000000     0.800000000000     0          
O        O      0.094550000000     0.500000000000     0.900000000000     0          
O        O      0.155450000000     0.655450000000     0.800000000000     0          
O        O      0.173350000000     0.542275000000     0.850000000000     0          
T        Si     0.120150000000     0.529225000000     0.850000000000     0          
O        O      0.118925000000     0.576650000000     0.850000000000     0          
T        Si     0.159075000000     0.629850000000     0.850000000000     0          
O        O      0.207725000000     0.631075000000     0.850000000000     0          
T        Si     0.220775000000     0.590925000000     0.850000000000     0          
O        O      0.042275000000     0.923350000000     0.150000000000     0          
O        O      0.000000000000     0.844550000000     0.100000000000     0          
T        Si     0.029225000000     0.870150000000     0.150000000000     0          
O        O      0.131075000000     0.957725000000     0.150000000000     0          
O        O      0.094550000000     0.750000000000     0.000000000000     0          
T        Si     0.090925000000     0.970775000000     0.150000000000     0          
O        O      0.076650000000     0.868925000000     0.150000000000     0          
O        O      0.155450000000     0.905450000000     0.100000000000     0          
T        Si     0.129850000000     0.909075000000     0.150000000000     0          
O        O      0.000000000000     0.844550000000     0.000000000000     0          
O        O      0.094550000000     0.750000000000     0.100000000000     0          
O        O      0.155450000000     0.905450000000     0.000000000000     0          
O        O      0.173350000000     0.792275000000     0.050000000000     0          
T        Si     0.120150000000     0.779225000000     0.050000000000     0          
O        O      0.118925000000     0.826650000000     0.050000000000     0          
T        Si     0.159075000000     0.879850000000     0.050000000000     0          
O        O      0.207725000000     0.881075000000     0.050000000000     0          
T        Si     0.220775000000     0.840925000000     0.050000000000     0          
O        O      0.042275000000     0.923350000000     0.350000000000     0          
O        O      0.000000000000     0.844550000000     0.300000000000     0          
T        Si     0.029225000000     0.870150000000     0.350000000000     0          
O        O      0.131075000000     0.957725000000     0.350000000000     0          
O        O      0.094550000000     0.750000000000     0.200000000000     0          
T        Si     0.090925000000     0.970775000000     0.350000000000     0          
O        O      0.076650000000     0.868925000000     0.350000000000     0          
O        O      0.155450000000     0.905450000000     0.300000000000     0          
T        Si     0.129850000000     0.909075000000     0.350000000000     0          
O        O      0.000000000000     0.844550000000     0.200000000000     0          
O        O      0.094550000000     0.750000000000     0.300000000000     0          
O        O      0.155450000000     0.905450000000     0.200000000000     0          
O        O      0.173350000000     0.792275000000     0.250000000000     0          
T        Si     0.120150000000     0.779225000000     0.250000000000     0          
O        O      0.118925000000     0.826650000000     0.250000000000     0          
T        Si     0.159075000000     0.879850000000     0.250000000000     0          
O        O      0.207725000000     0.881075000000     0.250000000000     0          
T        Si     0.220775000000     0.840925000000     0.250000000000     0          
O        O      0.042275000000     0.923350000000     0.550000000000     0          
O        O      0.000000000000     0.844550000000     0.500000000000     0          
T        Si     0.029225000000     0.870150000000     0.550000000000     0          
O        O      0.131075000000     0.957725000000     0.550000000000     0          
O        O      0.094550000000     0.750000000000     0.400000000000     0          
T        Si     0.090925000000     0.970775000000     0.550000000000     0          
O        O      0.076650000000     0.868925000000     0.550000000000     0          
O        O      0.155450000000     0.905450000000     0.500000000000     0          
T        Si     0.129850000000     0.909075000000     0.550000000000     0          
O        O      0.000000000000     0.844550000000     0.400000000000     0          
O        O      0.094550000000     0.750000000000     0.500000000000     0          
O        O      0.155450000000     0.905450000000     0.400000000000     0          
O        O      0.173350000000     0.792275000000     0.450000000000     0          
T        Si     0.120150000000     0.779225000000     0.450000000000     0          
O        O      0.118925000000     0.826650000000     0.450000000000     0          
T        Si     0.159075000000     0.879850000000     0.450000000000     0          
O        O      0.207725000000     0.881075000000     0.450000000000     0          
T        Si     0.220775000000     0.840925000000     0.450000000000     0          
O        O      0.042275000000     0.923350000000     0.750000000000     0          
O        O      0.000000000000     0.844550000000     0.700000000000     0          
T        Si     0.029225000000     0.870150000000     0.750000000000     0          
O        O      0.131075000000     0.957725000000     0.750000000000     0          
O        O      0.094550000000     0.750000000000     0.600000000000     0          
T        Si     0.090925000000     0.970775000000     0.750000000000     0          
O        O      0.076650000000     0.868925000000     0.750000000000     0          
O        O      0.155450000000     0.905450000000     0.700000000000     0          
T        Si     0.129850000000     0.909075000000     0.750000000000     0          
O        O      0.000000000000     0.844550000000     0.600000000000     0          
O        O      0.094550000000     0.750000000000     0.700000000000     0          
O        O      0.155450000000     0.905450000000     0.600000000000     0          
O        O      0.173350000000     0.792275000000     0.650000000000     0          
T        Si     0.120150000000     0.779225000000     0.650000000000     0          
O        O      0.118925000000     0.826650000000     0.650000000000     0          
T        Si     0.159075000000     0.879850000000     0.650000000000     0          
O        O      0.207725000000     0.881075000000     0.650000000000     0          
T        Si     0.220775000000     0.840925000000     0.650000000000     0          
O        O      0.042275000000     0.923350000000     0.950000000000     0          
O        O      0.000000000000     0.844550000000     0.900000000000     0          
T        Si     0.029225000000     0.870150000000     0.950000000000     0          
O        O      0.131075000000     0.957725000000     0.950000000000     0          
O        O      0.094550000000     0.750000000000     0.800000000000     0          
T        Si     0.090925000000     0.970775000000     0.950000000000     0          
O        O      0.076650000000     0.868925000000     0.950000000000     0          
O        O      0.155450000000     0.905450000000     0.900000000000     0          
T        Si     0.129850000000     0.909075000000     0.950000000000     0          
O        O      0.000000000000     0.844550000000     0.800000000000     0          
O        O      0.094550000000     0.750000000000     0.900000000000     0          
O        O      0.155450000000     0.905450000000     0.800000000000     0          
O        O      0.173350000000     0.792275000000     0.850000000000     0          
T        Si     0.120150000000     0.779225000000     0.850000000000     0          
O        O      0.118925000000     0.826650000000     0.850000000000     0          
T        Si     0.159075000000     0.879850000000     0.850000000000     0          
O        O      0.207725000000     0.881075000000     0.850000000000     0          
T        Si     0.220775000000     0.840925000000     0.850000000000     0          
O        O      0.292275000000     0.173350000000     0.150000000000     0          
O        O      0.250000000000     0.094550000000     0.100000000000     0          
T        Si     0.279225000000     0.120150000000     0.150000000000     0          
O        O      0.381075000000     0.207725000000     0.150000000000     0          
O        O      0.344550000000     0.000000000000     0.000000000000     0          
T        Si     0.340925000000     0.220775000000     0.150000000000     0          
O        O      0.326650000000     0.118925000000     0.150000000000     0          
O        O      0.405450000000     0.155450000000     0.100000000000     0          
T        Si     0.379850000000     0.159075000000     0.150000000000     0          
O        O      0.250000000000     0.094550000000     0.000000000000     0          
O        O      0.344550000000     0.000000000000     0.100000000000     0          
O        O      0.405450000000     0.155450000000     0.000000000000     0          
O        O      0.423350000000     0.042275000000     0.050000000000     0          
T        Si     0.370150000000     0.029225000000     0.050000000000     0          
O        O      0.368925000000     0.076650000000     0.050000000000     0          
T        Si     0.409075000000     0.129850000000     0.050000000000     0          
O        O      0.457725000000     0.131075000000     0.050000000000     0          
T        Si     0.470775000000     0.090925000000     0.050000000000     0          
O        O      0.292275000000     0.173350000000     0.350000000000     0          
O        O      0.250000000000     0.094550000000     0.300000000000     0          
T        Si     0.279225000000     0.120150000000     0.350000000000     0          
O        O      0.381075000000     0.207725000000     0.350000000000     0          
O        O      0.344550000000     0.000000000000     0.200000000000     0          
T        Si     0.340925000000     0.220775000000     0.350000000000     0          
O        O      0.326650000000     0.118925000000     0.350000000000     0          
O        O      0.405450000000     0.155450000000     0.300000000000     0          
T        Si     0.379850000000     0.159075000000     0.350000000000     0          
O        O      0.250000000000     0.094550000000     0.200000000000     0          
O        O      0.344550000000     0.000000000000     0.300000000000     0          
O        O      0.405450000000     0.155450000000     0.200000000000     0          
O        O      0.423350000000     0.042275000000     0.250000000000     0          
T        Si     0.370150000000     0.029225000000     0.250000000000     0          
O        O      0.368925000000     0.076650000000     0.250000000000     0          
T        Si     0.409075000000     0.129850000000     0.250000000000     0          
O        O      0.457725000000     0.131075000000     0.250000000000     0          
T        Si     0.470775000000     0.090925000000     0.250000000000     0          
O        O      0.292275000000     0.173350000000     0.550000000000     0          
O        O      0.250000000000     0.094550000000     0.500000000000     0          
T        Si     0.279225000000     0.120150000000     0.550000000000     0          
O        O      0.381075000000     0.207725000000     0.550000000000     0          
O        O      0.344550000000     0.000000000000     0.400000000000     0          
T        Si     0.340925000000     0.220775000000     0.550000000000     0          
O        O      0.326650000000     0.118925000000     0.550000000000     0          
O        O      0.405450000000     0.155450000000     0.500000000000     0          
T        Si     0.379850000000     0.159075000000     0.550000000000     0          
O        O      0.250000000000     0.094550000000     0.400000000000     0          
O        O      0.344550000000     0.000000000000     0.500000000000     0          
O        O      0.405450000000     0.155450000000     0.400000000000     0          
O        O      0.423350000000     0.042275000000     0.450000000000     0          
T        Si     0.370150000000     0.029225000000     0.450000000000     0          
O        O      0.368925000000     0.076650000000     0.450000000000     0          
T        Si     0.409075000000     0.129850000000     0.450000000000     0          
O        O      0.457725000000     0.131075000000     0.450000000000     0          
T        Si     0.470775000000     0.090925000000     0.450000000000     0          
O        O      0.292275000000     0.173350000000     0.750000000000     0          
O        O      0.250000000000     0.094550000000     0.700000000000     0          
T        Si     0.279225000000     0.120150000000     0.750000000000     0          
O        O      0.381075000000     0.207725000000     0.750000000000     0          
O        O      0.344550000000     0.000000000000     0.600000000000     0          
T        Si     0.340925000000     0.220775000000     0.750000000000     0          
O        O      0.326650000000     0.118925000000     0.750000000000     0          
O        O      0.405450000000     0.155450000000     0.700000000000     0          
T        Si     0.379850000000     0.159075000000     0.750000000000     0          
O        O      0.250000000000     0.094550000000     0.600000000000     0          
O        O      0.344550000000     0.000000000000     0.700000000000     0          
O        O      0.405450000000     0.155450000000     0.600000000000     0          
O        O      0.423350000000     0.042275000000     0.650000000000     0          
T        Si     0.370150000000     0.029225000000     0.650000000000     0          
O        O      0.368925000000     0.076650000000     0.650000000000     0          
T        Si     0.409075000000     0.129850000000     0.650000000000     0          
O        O      0.457725000000     0.131075000000     0.650000000000     0          
T        Si     0.470775000000     0.090925000000     0.650000000000     0          
O        O      0.292275000000     0.173350000000     0.950000000000     0          
O        O      0.250000000000     0.094550000000     0.900000000000     0          
T        Si     0.279225000000     0.120150000000     0.950000000000     0          
O        O      0.381075000000     0.207725000000     0.950000000000     0          
O        O      0.344550000000     0.000000000000     0.800000000000     0          
T        Si     0.340925000000     0.220775000000     0.950000000000     0          
O        O      0.326650000000     0.118925000000     0.950000000000     0          
O        O      0.405450000000     0.155450000000     0.900000000000     0          
T        Si     0.379850000000     0.159075000000     0.950000000000     0          
O        O      0.250000000000     0.094550000000     0.800000000000     0          
O        O      0.344550000000     0.000000000000     0.900000000000     0          
O        O      0.405450000000     0.155450000000     0.800000000000     0          
O        O      0.423350000000     0.042275000000     0.850000000000     0          
T        Si     0.370150000000     0.029225000000     0.850000000000     0          
O        O      0.368925000000     0.076650000000     0.850000000000     0          
T        Si     0.409075000000     0.129850000000     0.850000000000     0          
O        O      0.457725000000     0.131075000000     0.850000000000     0          
T        Si     0.470775000000     0.090925000000     0.850000000000     0          
O        O      0.292275000000     0.423350000000     0.150000000000     0          
O        O      0.250000000000     0.344550000000     0.100000000000     0          
T        Si     0.279225000000     0.370150000000     0.150000000000     0          
O        O      0.381075000000     0.457725000000     0.150000000000     0          
O        O      0.344550000000     0.250000000000     0.000000000000     0          
T        Si     0.340925000000     0.470775000000     0.150000000000     0          
O        O      0.326650000000     0.368925000000     0.150000000000     0          
O        O      0.405450000000     0.405450000000     0.100000000000     0          
T        Si     0.379850000000     0.409075000000     0.150000000000     0          
O        O      0.250000000000     0.344550000000     0.000000000000     0          
O        O      0.344550000000     0.250000000000     0.100000000000     0          
O        O      0.405450000000     0.405450000000     0.000000000000     0          
O        O      0.423350000000     0.292275000000     0.050000000000     0          
T        Si     0.370150000000     0.279225000000     0.050000000000     0          
O        O      0.368925000000     0.326650000000     0.050000000000     0          
T        Si     0.409075000000     0.379850000000     0.050000000000     0          
O        O      0.457725000000     0.381075000000     0.050000000000     0          
T        Si     0.470775000000     0.340925000000     0.050000000000     0          
O        O      0.292275000000     0.423350000000     0.350000000000     0          
O        O      0.250000000000     0.344550000000     0.300000000000     0          
T        Si     0.279225000000     0.370150000000     0.350000000000     0          
O        O      0.381075000000     0.457725000000     0.350000000000     0          
O        O      0.344550000000     0.250000000000     0.200000000000     0          
T        Si     0.340925000000     0.470775000000     0.350000000000     0          
O        O      0.326650000000     0.368925000000     0.350000000000     0          
O        O      0.405450000000     0.405450000000     0.300000000000     0          
T        Si     0.379850000000     0.409075000000     0.350000000000     0          
O        O      0.250000000000     0.344550000000     0.200000000000     0          
O        O      0.344550000000     0.250000000000     0.300000000000     0          
O        O      0.405450000000     0.405450000000     0.200000000000     0          
O        O      0.423350000000     0.292275000000     0.250000000000     0          
T        Si     0.370150000000     0.279225000000     0.250000000000     0          
O        O      0.368925000000     0.326650000000     0.250000000000     0          
T        Si     0.409075000000     0.379850000000     0.250000000000     0          
O        O      0.457725000000     0.381075000000     0.250000000000     0          
T        Si     0.470775000000     0.340925000000     0.250000000000     0          
O        O      0.292275000000     0.423350000000     0.550000000000     0          
O        O      0.250000000000     0.344550000000     0.500000000000     0          
T        Si     0.279225000000     0.370150000000     0.550000000000     0          
O        O      0.381075000000     0.457725000000     0.550000000000     0          
O        O      0.344550000000     0.250000000000     0.400000000000     0          
T        Si     0.340925000000     0.470775000000     0.550000000000     0          
O        O      0.326650000000     0.368925000000     0.550000000000     0          
O        O      0.405450000000     0.405450000000     0.500000000000     0          
T        Si     0.379850000000     0.409075000000     0.550000000000     0          
O        O      0.250000000000     0.344550000000     0.400000000000     0          
O        O      0.344550000000     0.250000000000     0.500000000000     0          
O        O      0.405450000000     0.405450000000     0.400000000000     0          
O        O      0.423350000000     0.292275000000     0.450000000000     0          
T        Si     0.370150000000     0.279225000000     0.450000000000     0          
O        O      0.368925000000     0.326650000000     0.450000000000     0          
T        Si     0.409075000000     0.379850000000     0.450000000000     0          
O        O      0.457725000000     0.381075000000     0.450000000000     0          
T        Si     0.470775000000     0.340925000000     0.450000000000     0          
O        O      0.292275000000     0.423350000000     0.750000000000     0          
O        O      0.250000000000     0.344550000000     0.700000000000     0          
T        Si     0.279225000000     0.370150000000     0.750000000000     0          
O        O      0.381075000000     0.457725000000     0.750000000000     0          
O        O      0.344550000000     0.250000000000     0.600000000000     0          
T        Si     0.340925000000     0.470775000000     0.750000000000     0          
O        O      0.326650000000     0.368925000000     0.750000000000     0          
O        O      0.405450000000     0.405450000000     0.700000000000     0          
T        Si     0.379850000000     0.409075000000     0.750000000000     0          
O        O      0.250000000000     0.344550000000     0.600000000000     0          
O        O      0.344550000000     0.250000000000     0.700000000000     0          
O        O      0.405450000000     0.405450000000     0.600000000000     0          
O        O      0.423350000000     0.292275000000     0.650000000000     0          
T        Si     0.370150000000     0.279225000000     0.650000000000     0          
O        O      0.368925000000     0.326650000000     0.650000000000     0          
T        Si     0.409075000000     0.379850000000     0.650000000000     0          
O        O      0.457725000000     0.381075000000     0.650000000000     0          
T        Si     0.470775000000     0.340925000000     0.650000000000     0          
O        O      0.292275000000     0.423350000000     0.950000000000     0          
O        O      0.250000000000     0.344550000000     0.900000000000     0          
T        Si     0.279225000000     0.370150000000     0.950000000000     0          
O        O      0.381075000000     0.457725000000     0.950000000000     0          
O        O      0.344550000000     0.250000000000     0.800000000000     0          
T        Si     0.340925000000     0.470775000000     0.950000000000     0          
O        O      0.326650000000     0.368925000000     0.950000000000     0          
O        O      0.405450000000     0.405450000000     0.900000000000     0          
T        Si     0.379850000000     0.409075000000     0.950000000000     0          
O        O      0.250000000000     0.344550000000     0.800000000000     0          
O        O      0.344550000000     0.250000000000     0.900000000000     0          
O        O      0.405450000000     0.405450000000     0.800000000000     0          
O        O      0.423350000000     0.292275000000     0.850000000000     0          
T        Si     0.370150000000     0.279225000000     0.850000000000     0          
O        O      0.368925000000     0.326650000000     0.850000000000     0          
T        Si     0.409075000000     0.379850000000     0.850000000000     0          
O        O      0.457725000000     0.381075000000     0.850000000000     0          
T        Si     0.470775000000     0.340925000000     0.850000000000     0          
O        O      0.292275000000     0.673350000000     0.150000000000     0          
O        O      0.250000000000     0.594550000000     0.100000000000     0          
T        Si     0.279225000000     0.620150000000     0.150000000000     0          
O        O      0.381075000000     0.707725000000     0.150000000000     0          
O        O      0.344550000000     0.500000000000     0.000000000000     0          
T        Si     0.340925000000     0.720775000000     0.150000000000     0          
O        O      0.326650000000     0.618925000000     0.150000000000     0          
O        O      0.405450000000     0.655450000000     0.100000000000     0          
T        Si     0.379850000000     0.659075000000     0.150000000000     0          
O        O      0.250000000000     0.594550000000     0.000000000000     0          
O        O      0.344550000000     0.500000000000     0.100000000000     0          
O        O      0.405450000000     0.655450000000     0.000000000000     0          
O        O      0.423350000000     0.542275000000     0.050000000000     0          
T        Si     0.370150000000     0.529225000000     0.050000000000     0          
O        O      0.368925000000     0.576650000000     0.050000000000     0          
T        Si     0.409075000000     0.629850000000     0.050000000000     0          
O        O      0.457725000000     0.631075000000     0.050000000000     0          
T        Si     0.470775000000     0.590925000000     0.050000000000     0          
O        O      0.292275000000     0.673350000000     0.350000000000     0          
O        O      0.250000000000     0.594550000000     0.300000000000     0          
T        Si     0.279225000000     0.620150000000     0.350000000000     0          
O        O      0.381075000000     0.707725000000     0.350000000000     0          
O        O      0.344550000000     0.500000000000     0.200000000000     0          
T        Si     0.340925000000     0.720775000000     0.350000000000     0          
O        O      0.326650000000     0.618925000000     0.350000000000     0          
O        O      0.405450000000     0.655450000000     0.300000000000     0          
T        Si     0.379850000000     0.659075000000     0.350000000000     0          
O        O      0.250000000000     0.594550000000     0.200000000000     0          
O        O      0.344550000000     0.500000000000     0.300000000000     0          
O        O      0.405450000000     0.655450000000     0.200000000000     0          
O        O      0.423350000000     0.542275000000     0.250000000000     0          
T        Si     0.370150000000     0.529225000000     0.250000000000     0          
O        O      0.368925000000     0.576650000000     0.250000000000     0          
T        Si     0.409075000000     0.629850000000     0.250000000000     0          
O        O      0.457725000000     0.631075000000     0.250000000000     0          
T        Si     0.470775000000     0.590925000000     0.250000000000     0          
O        O      0.292275000000     0.673350000000     0.550000000000     0          
O        O      0.250000000000     0.594550000000     0.500000000000     0          
T        Si     0.279225000000     0.620150000000     0.550000000000     0          
O        O      0.381075000000     0.707725000000     0.550000000000     0          
O        O      0.344550000000     0.500000000000     0.400000000000     0          
T        Si     0.340925000000     0.720775000000     0.550000000000     0          
O        O      0.326650000000     0.618925000000     0.550000000000     0          
O        O      0.405450000000     0.655450000000     0.500000000000     0          
T        Si     0.379850000000     0.659075000000     0.550000000000     0          
O        O      0.250000000000     0.594550000000     0.400000000000     0          
O        O      0.344550000000     0.500000000000     0.500000000000     0          
O        O      0.405450000000     0.655450000000     0.400000000000     0          
O        O      0.423350000000     0.542275000000     0.450000000000     0          
T        Si     0.370150000000     0.529225000000     0.450000000000     0          
O        O      0.368925000000     0.576650000000     0.450000000000     0          
T        Si     0.409075000000     0.629850000000     0.450000000000     0          
O        O      0.457725000000     0.631075000000     0.450000000000     0          
T        Si     0.470775000000     0.590925000000     0.450000000000     0          
O        O      0.292275000000     0.673350000000     0.750000000000     0          
O        O      0.250000000000     0.594550000000     0.700000000000     0          
T        Si     0.279225000000     0.620150000000     0.750000000000     0          
O        O      0.381075000000     0.707725000000     0.750000000000     0          
O        O      0.344550000000     0.500000000000     0.600000000000     0          
T        Si     0.340925000000     0.720775000000     0.750000000000     0          
O        O      0.326650000000     0.618925000000     0.750000000000     0          
O        O      0.405450000000     0.655450000000     0.700000000000     0          
T        Si     0.379850000000     0.659075000000     0.750000000000     0          
O        O      0.250000000000     0.594550000000     0.600000000000     0          
O        O      0.344550000000     0.500000000000     0.700000000000     0          
O        O      0.405450000000     0.655450000000     0.600000000000     0          
O        O      0.423350000000     0.542275000000     0.650000000000     0          
T        Si     0.370150000000     0.529225000000     0.650000000000     0          
O        O      0.368925000000     0.576650000000     0.650000000000     0          
T        Si     0.409075000000     0.629850000000     0.650000000000     0          
O        O      0.457725000000     0.631075000000     0.650000000000     0          
T        Si     0.470775000000     0.590925000000     0.650000000000     0          
O        O      0.292275000000     0.673350000000     0.950000000000     0          
O        O      0.250000000000     0.594550000000     0.900000000000     0          
T        Si     0.279225000000     0.620150000000     0.950000000000     0          
O        O      0.381075000000     0.707725000000     0.950000000000     0          
O        O      0.344550000000     0.500000000000     0.800000000000     0          
T        Si     0.340925000000     0.720775000000     0.950000000000     0          
O        O      0.326650000000     0.618925000000     0.950000000000     0          
O        O      0.405450000000     0.655450000000     0.900000000000     0          
T        Si     0.379850000000     0.659075000000     0.950000000000     0          
O        O      0.250000000000     0.594550000000     0.800000000000     0          
O        O      0.344550000000     0.500000000000     0.900000000000     0          
O        O      0.405450000000     0.655450000000     0.800000000000     0          
O        O      0.423350000000     0.542275000000     0.850000000000     0          
T        Si     0.370150000000     0.529225000000     0.850000000000     0          
O        O      0.368925000000     0.576650000000     0.850000000000     0          
T        Si     0.409075000000     0.629850000000     0.850000000000     0          
O        O      0.457725000000     0.631075000000     0.850000000000     0          
T        Si     0.470775000000     0.590925000000     0.850000000000     0          
O        O      0.292275000000     0.923350000000     0.150000000000     0          
O        O      0.250000000000     0.844550000000     0.100000000000     0          
T        Si     0.279225000000     0.870150000000     0.150000000000     0          
O        O      0.381075000000     0.957725000000     0.150000000000     0          
O        O      0.344550000000     0.750000000000     0.000000000000     0          
T        Si     0.340925000000     0.970775000000     0.150000000000     0          
O        O      0.326650000000     0.868925000000     0.150000000000     0          
O        O      0.405450000000     0.905450000000     0.100000000000     0          
T        Si     0.379850000000     0.909075000000     0.150000000000     0          
O        O      0.250000000000     0.844550000000     0.000000000000     0          
O        O      0.344550000000     0.750000000000     0.100000000000     0          
O        O      0.405450000000     0.905450000000     0.000000000000     0          
O        O      0.423350000000     0.792275000000     0.050000000000     0          
T        Si     0.370150000000     0.779225000000     0.050000000000     0          
O        O      0.368925000000     0.826650000000     0.050000000000     0          
T        Si     0.409075000000     0.879850000000     0.050000000000     0          
O        O      0.457725000000     0.881075000000     0.050000000000     0          
T        Si     0.470775000000     0.840925000000     0.050000000000     0          
O        O      0.292275000000     0.923350000000     0.350000000000     0          
O        O      0.250000000000     0.844550000000     0.300000000000     0          
T        Si     0.279225000000     0.870150000000     0.350000000000     0          
O        O      0.381075000000     0.957725000000     0.350000000000     0          
O        O      0.344550000000     0.750000000000     0.200000000000     0          
T        Si     0.340925000000     0.970775000000     0.350000000000     0          
O        O      0.326650000000     0.868925000000     0.350000000000     0          
O        O      0.405450000000     0.905450000000     0.300000000000     0          
T        Si     0.379850000000     0.909075000000     0.350000000000     0          
O        O      0.250000000000     0.844550000000     0.200000000000     0          
O        O      0.344550000000     0.750000000000     0.300000000000     0          
O        O      0.405450000000     0.905450000000     0.200000000000     0          
O        O      0.423350000000     0.792275000000     0.250000000000     0          
T        Si     0.370150000000     0.779225000000     0.250000000000     0          
O        O      0.368925000000     0.826650000000     0.250000000000     0          
T        Si     0.409075000000     0.879850000000     0.250000000000     0          
O        O      0.457725000000     0.881075000000     0.250000000000     0          
T        Si     0.470775000000     0.840925000000     0.250000000000     0          
O        O      0.292275000000     0.923350000000     0.550000000000     0          
O        O      0.250000000000     0.844550000000     0.500000000000     0          
T        Si     0.279225000000     0.870150000000     0.550000000000     0          
O        O      0.381075000000     0.957725000000     0.550000000000     0          
O        O      0.344550000000     0.750000000000     0.400000000000     0          
T        Si     0.340925000000     0.970775000000     0.550000000000     0          
O        O      0.326650000000     0.868925000000     0.550000000000     0          
O        O      0.405450000000     0.905450000000     0.500000000000     0          
T        Si     0.379850000000     0.909075000000     0.550000000000     0          
O        O      0.250000000000     0.844550000000     0.400000000000     0          
O        O      0.344550000000     0.750000000000     0.500000000000     0          
O        O      0.405450000000     0.905450000000     0.400000000000     0          
O        O      0.423350000000     0.792275000000     0.450000000000     0          
T        Si     0.370150000000     0.779225000000     0.450000000000     0          
O        O      0.368925000000     0.826650000000     0.450000000000     0          
T        Si     0.409075000000     0.879850000000     0.450000000000     0          
O        O      0.457725000000     0.881075000000     0.450000000000     0          
T        Si     0.470775000000     0.840925000000     0.450000000000     0          
O        O      0.292275000000     0.923350000000     0.750000000000     0          
O        O      0.250000000000     0.844550000000     0.700000000000     0          
T        Si     0.279225000000     0.870150000000     0.750000000000     0          
O        O      0.381075000000     0.957725000000     0.750000000000     0          
O        O      0.344550000000     0.750000000000     0.600000000000     0          
T        Si     0.340925000000     0.970775000000     0.750000000000     0          
O        O      0.326650000000     0.868925000000     0.750000000000     0          
O        O      0.405450000000     0.905450000000     0.700000000000     0          
T        Si     0.379850000000     0.909075000000     0.750000000000     0          
O        O      0.250000000000     0.844550000000     0.600000000000     0          
O        O      0.344550000000     0.750000000000     0.700000000000     0          
O        O      0.405450000000     0.905450000000     0.600000000000     0          
O        O      0.423350000000     0.792275000000     0.650000000000     0          
T        Si     0.370150000000     0.779225000000     0.650000000000     0          
O        O      0.368925000000     0.826650000000     0.650000000000     0          
T        Si     0.409075000000     0.879850000000     0.650000000000     0          
O        O      0.457725000000     0.881075000000     0.650000000000     0          
T        Si     0.470775000000     0.840925000000     0.650000000000     0          
O        O      0.292275000000     0.923350000000     0.950000000000     0          
O        O      0.250000000000     0.844550000000     0.900000000000     0          
T        Si     0.279225000000     0.870150000000     0.950000000000     0          
O        O      0.381075000000     0.957725000000     0.950000000000     0          
O        O      0.344550000000     0.750000000000     0.800000000000     0          
T        Si     0.340925000000     0.970775000000     0.950000000000     0          
O        O      0.326650000000     0.868925000000     0.950000000000     0          
O        O      0.405450000000     0.905450000000     0.900000000000     0          
T        Si     0.379850000000     0.909075000000     0.950000000000     0          
O        O      0.250000000000     0.844550000000     0.800000000000     0          
O        O      0.344550000000     0.750000000000     0.900000000000     0          
O        O      0.405450000000     0.905450000000     0.800000000000     0          
O        O      0.423350000000     0.792275000000     0.850000000000     0          
T        Si     0.370150000000     0.779225000000     0.850000000000     0          
O        O      0.368925000000     0.826650000000     0.850000000000     0          
T        Si     0.409075000000     0.879850000000     0.850000000000     0          
O        O      0.457725000000     0.881075000000     0.850000000000     0          
T        Si     0.470775000000     0.840925000000     0.850000000000     0          
O        O      0.542275000000     0.173350000000     0.150000000000     0          
O        O      0.500000000000     0.094550000000     0.100000000000     0          
T        Si     0.529225000000     0.120150000000     0.150000000000     0          
O        O      0.631075000000     0.207725000000     0.150000000000     0          
O        O      0.594550000000     0.000000000000     0.000000000000     0          
T        Si     0.590925000000     0.220775000000     0.150000000000     0          
O        O      0.576650000000     0.118925000000     0.150000000000     0          
O        O      0.655450000000     0.155450000000     0.100000000000     0          
T        Si     0.629850000000     0.159075000000     0.150000000000     0          
O        O      0.500000000000     0.094550000000     0.000000000000     0          
O        O      0.594550000000     0.000000000000     0.100000000000     0          
O        O      0.655450000000     0.155450000000     0.000000000000     0          
O        O      0.673350000000     0.042275000000     0.050000000000     0          
T        Si     0.620150000000     0.029225000000     0.050000000000     0          
O        O      0.618925000000     0.076650000000     0.050000000000     0          
T        Si     0.659075000000     0.129850000000     0.050000000000     0          
O        O      0.707725000000     0.131075000000     0.050000000000     0          
T        Si     0.720775000000     0.090925000000     0.050000000000     0          
O        O      0.542275000000     0.173350000000     0.350000000000     0          
O        O      0.500000000000     0.094550000000     0.300000000000     0          
T        Si     0.529225000000     0.120150000000     0.350000000000     0          
O        O      0.631075000000     0.207725000000     0.350000000000     0          
O        O      0.594550000000     0.000000000000     0.200000000000     0          
T        Si     0.590925000000     0.220775000000     0.350000000000     0          
O        O      0.576650000000     0.118925000000     0.350000000000     0          
O        O      0.655450000000     0.155450000000     0.300000000000     0          
T        Si     0.629850000000     0.159075000000     0.350000000000     0          
O        O      0.500000000000     0.094550000000     0.200000000000     0          
O        O      0.594550000000     0.000000000000     0.300000000000     0          
O        O      0.655450000000     0.155450000000     0.200000000000     0          
O        O      0.673350000000     0.042275000000     0.250000000000     0          
T        Si     0.620150000000     0.029225000000     0.250000000000     0          
O        O      0.618925000000     0.076650000000     0.250000000000     0          
T        Si     0.659075000000     0.129850000000     0.250000000000     0          
O        O      0.707725000000     0.131075000000     0.250000000000     0          
T        Si     0.720775000000     0.090925000000     0.250000000000     0          
O        O      0.542275000000     0.173350000000     0.550000000000     0          
O        O      0.500000000000     0.094550000000     0.500000000000     0          
T        Si     0.529225000000     0.120150000000     0.550000000000     0          
O        O      0.631075000000     0.207725000000     0.550000000000     0          
O        O      0.594550000000     0.000000000000     0.400000000000     0          
T        Si     0.590925000000     0.220775000000     0.550000000000     0          
O        O      0.576650000000     0.118925000000     0.550000000000     0          
O        O      0.655450000000     0.155450000000     0.500000000000     0          
T        Si     0.629850000000     0.159075000000     0.550000000000     0          
O        O      0.500000000000     0.094550000000     0.400000000000     0          
O        O      0.594550000000     0.000000000000     0.500000000000     0          
O        O      0.655450000000     0.155450000000     0.400000000000     0          
O        O      0.673350000000     0.042275000000     0.450000000000     0          
T        Si     0.620150000000     0.029225000000     0.450000000000     0          
O        O      0.618925000000     0.076650000000     0.450000000000     0          
T        Si     0.659075000000     0.129850000000     0.450000000000     0          
O        O      0.707725000000     0.131075000000     0.450000000000     0          
T        Si     0.720775000000     0.090925000000     0.450000000000     0          
O        O      0.542275000000     0.173350000000     0.750000000000     0          
O        O      0.500000000000     0.094550000000     0.700000000000     0          
T        Si     0.529225000000     0.120150000000     0.750000000000     0          
O        O      0.631075000000     0.207725000000     0.750000000000     0          
O        O      0.594550000000     0.000000000000     0.600000000000     0          
T        Si     0.590925000000     0.220775000000     0.750000000000     0          
O        O      0.576650000000     0.118925000000     0.750000000000     0          
O        O      0.655450000000     0.155450000000     0.700000000000     0          
T        Si     0.629850000000     0.159075000000     0.750000000000     0          
O        O      0.500000000000     0.094550000000     0.600000000000     0          
O        O      0.594550000000     0.000000000000     0.700000000000     0          
O        O      0.655450000000     0.155450000000     0.600000000000     0          
O        O      0.673350000000     0.042275000000     0.650000000000     0          
T        Si     0.620150000000     0.029225000000     0.650000000000     0          
O        O      0.618925000000     0.076650000000     0.650000000000     0          
T        Si     0.659075000000     0.129850000000     0.650000000000     0          
O        O      0.707725000000     0.131075000000     0.650000000000     0          
T        Si     0.720775000000     0.090925000000     0.650000000000     0          
O        O      0.542275000000     0.173350000000     0.950000000000     0          
O        O      0.500000000000     0.094550000000     0.900000000000     0          
T        Si     0.529225000000     0.120150000000     0.950000000000     0          
O        O      0.631075000000     0.207725000000     0.950000000000     0          
O        O      0.594550000000     0.000000000000     0.800000000000     0          
T        Si     0.590925000000     0.220775000000     0.950000000000     0          
O        O      0.576650000000     0.118925000000     0.950000000000     0          
O        O      0.655450000000     0.155450000000     0.900000000000     0          
T        Si     0.629850000000     0.159075000000     0.950000000000     0          
O        O      0.500000000000     0.094550000000     0.800000000000     0          
O        O      0.594550000000     0.000000000000     0.900000000000     0          
O        O      0.655450000000     0.155450000000     0.800000000000     0          
O        O      0.673350000000     0.042275000000     0.850000000000     0          
T        Si     0.620150000000     0.029225000000     0.850000000000     0          
O        O      0.618925000000     0.076650000000     0.850000000000     0          
T        Si     0.659075000000     0.129850000000     0.850000000000     0          
O        O      0.707725000000     0.131075000000     0.850000000000     0          
T        Si     0.720775000000     0.090925000000     0.850000000000     0          
O        O      0.542275000000     0.423350000000     0.150000000000     0          
O        O      0.500000000000     0.344550000000     0.100000000000     0          
T        Si     0.529225000000     0.370150000000     0.150000000000     0          
O        O      0.631075000000     0.457725000000     0.150000000000     0          
O        O      0.594550000000     0.250000000000     0.000000000000     0          
T        Si     0.590925000000     0.470775000000     0.150000000000     0          
O        O      0.576650000000     0.368925000000     0.150000000000     0          
O        O      0.655450000000     0.405450000000     0.100000000000     0          
T        Si     0.629850000000     0.409075000000     0.150000000000     0          
O        O      0.500000000000     0.344550000000     0.000000000000     0          
O        O      0.594550000000     0.250000000000     0.100000000000     0          
O        O      0.655450000000     0.405450000000     0.000000000000     0          
O        O      0.673350000000     0.292275000000     0.050000000000     0          
T        Si     0.620150000000     0.279225000000     0.050000000000     0          
O        O      0.618925000000     0.326650000000     0.050000000000     0          
T        Si     0.659075000000     0.379850000000     0.050000000000     0          
O        O      0.707725000000     0.381075000000     0.050000000000     0          
T        Si     0.720775000000     0.340925000000     0.050000000000     0          
O        O      0.542275000000     0.423350000000     0.350000000000     0          
O        O      0.500000000000     0.344550000000     0.300000000000     0          
T        Si     0.529225000000     0.370150000000     0.350000000000     0          
O        O      0.631075000000     0.457725000000     0.350000000000     0          
O        O      0.594550000000     0.250000000000     0.200000000000     0          
T        Si     0.590925000000     0.470775000000     0.350000000000     0          
O        O      0.576650000000     0.368925000000     0.350000000000     0          
O        O      0.655450000000     0.405450000000     0.300000000000     0          
T        Si     0.629850000000     0.409075000000     0.350000000000     0          
O        O      0.500000000000     0.344550000000     0.200000000000     0          
O        O      0.594550000000     0.250000000000     0.300000000000     0          
O        O      0.655450000000     0.405450000000     0.200000000000     0          
O        O      0.673350000000     0.292275000000     0.250000000000     0          
T        Si     0.620150000000     0.279225000000     0.250000000000     0          
O        O      0.618925000000     0.326650000000     0.250000000000     0          
T        Si     0.659075000000     0.379850000000     0.250000000000     0          
O        O      0.707725000000     0.381075000000     0.250000000000     0          
T        Si     0.720775000000     0.340925000000     0.250000000000     0          
O        O      0.542275000000     0.423350000000     0.550000000000     0          
O        O      0.500000000000     0.344550000000     0.500000000000     0          
T        Si     0.529225000000     0.370150000000     0.550000000000     0          
O        O      0.631075000000     0.457725000000     0.550000000000     0          
O        O      0.594550000000     0.250000000000     0.400000000000     0          
T        Si     0.590925000000     0.470775000000     0.550000000000     0          
O        O      0.576650000000     0.368925000000     0.550000000000     0          
O        O      0.655450000000     0.405450000000     0.500000000000     0          
T        Si     0.629850000000     0.409075000000     0.550000000000     0          
O        O      0.500000000000     0.344550000000     0.400000000000     0          
O        O      0.594550000000     0.250000000000     0.500000000000     0          
O        O      0.655450000000     0.405450000000     0.400000000000     0          
O        O      0.673350000000     0.292275000000     0.450000000000     0          
T        Si     0.620150000000     0.279225000000     0.450000000000     0          
O        O      0.618925000000     0.326650000000     0.450000000000     0          
T        Si     0.659075000000     0.379850000000     0.450000000000     0          
O        O      0.707725000000     0.381075000000     0.450000000000     0          
T        Si     0.720775000000     0.340925000000     0.450000000000     0          
O        O      0.542275000000     0.423350000000     0.750000000000     0          
O        O      0.500000000000     0.344550000000     0.700000000000     0          
T        Si     0.529225000000     0.370150000000     0.750000000000     0          
O        O      0.631075000000     0.457725000000     0.750000000000     0          
O        O      0.594550000000     0.250000000000     0.600000000000     0          
T        Si     0.590925000000     0.470775000000     0.750000000000     0          
O        O      0.576650000000     0.368925000000     0.750000000000     0          
O        O      0.655450000000     0.405450000000     0.700000000000     0          
T        Si     0.629850000000     0.409075000000     0.750000000000     0          
O        O      0.500000000000     0.344550000000     0.600000000000     0          
O        O      0.594550000000     0.250000000000     0.700000000000     0          
O        O      0.655450000000     0.405450000000     0.600000000000     0          
O        O      0.673350000000     0.292275000000     0.650000000000     0          
T        Si     0.620150000000     0.279225000000     0.650000000000     0          
O        O      0.618925000000     0.326650000000     0.650000000000     0          
T        Si     0.659075000000     0.379850000000     0.650000000000     0          
O        O      0.707725000000     0.381075000000     0.650000000000     0          
T        Si     0.720775000000     0.340925000000     0.650000000000     0          
O        O      0.542275000000     0.423350000000     0.950000000000     0          
O        O      0.500000000000     0.344550000000     0.900000000000     0          
T        Si     0.529225000000     0.370150000000     0.950000000000     0          
O        O      0.631075000000     0.457725000000     0.950000000000     0          
O        O      0.594550000000     0.250000000000     0.800000000000     0          
T        Si     0.590925000000     0.470775000000     0.950000000000     0          
O        O      0.576650000000     0.368925000000     0.950000000000     0          
O        O      0.655450000000     0.405450000000     0.900000000000     0          
T        Si     0.629850000000     0.409075000000     0.950000000000     0          
O        O      0.500000000000     0.344550000000     0.800000000000     0          
O        O      0.594550000000     0.250000000000     0.900000000000     0          
O        O      0.655450000000     0.405450000000     0.800000000000     0          
O        O      0.673350000000     0.292275000000     0.850000000000     0          
T        Si     0.620150000000     0.279225000000     0.850000000000     0          
O        O      0.618925000000     0.326650000000     0.850000000000     0          
T        Si     0.659075000000     0.379850000000     0.850000000000     0          
O        O      0.707725000000     0.381075000000     0.850000000000     0          
T        Si     0.720775000000     0.340925000000     0.850000000000     0          
O        O      0.542275000000     0.673350000000     0.150000000000     0          
O        O      0.500000000000     0.594550000000     0.100000000000     0          
T        Si     0.529225000000     0.620150000000     0.150000000000     0          
O        O      0.631075000000     0.707725000000     0.150000000000     0          
O        O      0.594550000000     0.500000000000     0.000000000000     0          
T        Si     0.590925000000     0.720775000000     0.150000000000     0          
O        O      0.576650000000     0.618925000000     0.150000000000     0          
O        O      0.655450000000     0.655450000000     0.100000000000     0          
T        Si     0.629850000000     0.659075000000     0.150000000000     0          
O        O      0.500000000000     0.594550000000     0.000000000000     0          
O        O      0.594550000000     0.500000000000     0.100000000000     0          
O        O      0.655450000000     0.655450000000     0.000000000000     0          
O        O      0.673350000000     0.542275000000     0.050000000000     0          
T        Si     0.620150000000     0.529225000000     0.050000000000     0          
O        O      0.618925000000     0.576650000000     0.050000000000     0          
T        Si     0.659075000000     0.629850000000     0.050000000000     0          
O        O      0.707725000000     0.631075000000     0.050000000000     0          
T        Si     0.720775000000     0.590925000000     0.050000000000     0          
O        O      0.542275000000     0.673350000000     0.350000000000     0          
O        O      0.500000000000     0.594550000000     0.300000000000     0          
T        Si     0.529225000000     0.620150000000     0.350000000000     0          
O        O      0.631075000000     0.707725000000     0.350000000000     0          
O        O      0.594550000000     0.500000000000     0.200000000000     0          
T        Si     0.590925000000     0.720775000000     0.350000000000     0          
O        O      0.576650000000     0.618925000000     0.350000000000     0          
O        O      0.655450000000     0.655450000000     0.300000000000     0          
T        Si     0.629850000000     0.659075000000     0.350000000000     0          
O        O      0.500000000000     0.594550000000     0.200000000000     0          
O        O      0.594550000000     0.500000000000     0.300000000000     0          
O        O      0.655450000000     0.655450000000     0.200000000000     0          
O        O      0.673350000000     0.542275000000     0.250000000000     0          
T        Si     0.620150000000     0.529225000000     0.250000000000     0          
O        O      0.618925000000     0.576650000000     0.250000000000     0          
T        Si     0.659075000000     0.629850000000     0.250000000000     0          
O        O      0.707725000000     0.631075000000     0.250000000000     0          
T        Si     0.720775000000     0.590925000000     0.250000000000     0          
O        O      0.542275000000     0.673350000000     0.550000000000     0          
O        O      0.500000000000     0.594550000000     0.500000000000     0          
T        Si     0.529225000000     0.620150000000     0.550000000000     0          
O        O      0.631075000000     0.707725000000     0.550000000000     0          
O        O      0.594550000000     0.500000000000     0.400000000000     0          
T        Si     0.590925000000     0.720775000000     0.550000000000     0          
O        O      0.576650000000     0.618925000000     0.550000000000     0          
O        O      0.655450000000     0.655450000000     0.500000000000     0          
T        Si     0.629850000000     0.659075000000     0.550000000000     0          
O        O      0.500000000000     0.594550000000     0.400000000000     0          
O        O      0.594550000000     0.500000000000     0.500000000000     0          
O        O      0.655450000000     0.655450000000     0.400000000000     0          
O        O      0.673350000000     0.542275000000     0.450000000000     0          
T        Si     0.620150000000     0.529225000000     0.450000000000     0          
O        O      0.618925000000     0.576650000000     0.450000000000     0          
T        Si     0.659075000000     0.629850000000     0.450000000000     0          
O        O      0.707725000000     0.631075000000     0.450000000000     0          
T        Si     0.720775000000     0.590925000000     0.450000000000     0          
O        O      0.542275000000     0.673350000000     0.750000000000     0          
O        O      0.500000000000     0.594550000000     0.700000000000     0          
T        Si     0.529225000000     0.620150000000     0.750000000000     0          
O        O      0.631075000000     0.707725000000     0.750000000000     0          
O        O      0.594550000000     0.500000000000     0.600000000000     0          
T        Si     0.590925000000     0.720775000000     0.750000000000     0          
O        O      0.576650000000     0.618925000000     0.750000000000     0          
O        O      0.655450000000     0.655450000000     0.700000000000     0          
T        Si     0.629850000000     0.659075000000     0.750000000000     0          
O        O      0.500000000000     0.594550000000     0.600000000000     0          
O        O      0.594550000000     0.500000000000     0.700000000000     0          
O        O      0.655450000000     0.655450000000     0.600000000000     0          
O        O      0.673350000000     0.542275000000     0.650000000000     0          
T        Si     0.620150000000     0.529225000000     0.650000000000     0          
O        O      0.618925000000     0.576650000000     0.650000000000     0          
T        Si     0.659075000000     0.629850000000     0.650000000000     0          
O        O      0.707725000000     0.631075000000     0.650000000000     0          
T        Si     0.720775000000     0.590925000000     0.650000000000     0          
O        O      0.542275000000     0.673350000000     0.950000000000     0          
O        O      0.500000000000     0.594550000000     0.900000000000     0          
T        Si     0.529225000000     0.620150000000     0.950000000000     0          
O        O      0.631075000000     0.707725000000     0.950000000000     0          
O        O      0.594550000000     0.500000000000     0.800000000000     0          
T        Si     0.590925000000     0.720775000000     0.950000000000     0          
O        O      0.576650000000     0.618925000000     0.950000000000     0          
O        O      0.655450000000     0.655450000000     0.900000000000     0          
T        Si     0.629850000000     0.659075000000     0.950000000000     0          
O        O      0.500000000000     0.594550000000     0.800000000000     0          
O        O      0.594550000000     0.500000000000     0.900000000000     0          
O        O      0.655450000000     0.655450000000     0.800000000000     0          
O        O      0.673350000000     0.542275000000     0.850000000000     0          
T        Si     0.620150000000     0.529225000000     0.850000000000     0          
O        O      0.618925000000     0.576650000000     0.850000000000     0          
T        Si     0.659075000000     0.629850000000     0.850000000000     0          
O        O      0.707725000000     0.631075000000     0.850000000000     0          
T        Si     0.720775000000     0.590925000000     0.850000000000     0          
O        O      0.542275000000     0.923350000000     0.150000000000     0          
O        O      0.500000000000     0.844550000000     0.100000000000     0          
T        Si     0.529225000000     0.870150000000     0.150000000000     0          
O        O      0.631075000000     0.957725000000     0.150000000000     0          
O        O      0.594550000000     0.750000000000     0.000000000000     0          
T        Si     0.590925000000     0.970775000000     0.150000000000     0          
O        O      0.576650000000     0.868925000000     0.150000000000     0          
O        O      0.655450000000     0.905450000000     0.100000000000     0          
T        Si     0.629850000000     0.909075000000     0.150000000000     0          
O        O      0.500000000000     0.844550000000     0.000000000000     0          
O        O      0.594550000000     0.750000000000     0.100000000000     0          
O        O      0.655450000000     0.905450000000     0.000000000000     0          
O        O      0.673350000000     0.792275000000     0.050000000000     0          
T        Si     0.620150000000     0.779225000000     0.050000000000     0          
O        O      0.618925000000     0.826650000000     0.050000000000     0          
T        Si     0.659075000000     0.879850000000     0.050000000000     0          
O        O      0.707725000000     0.881075000000     0.050000000000     0          
T        Si     0.720775000000     0.840925000000     0.050000000000     0          
O        O      0.542275000000     0.923350000000     0.350000000000     0          
O        O      0.500000000000     0.844550000000     0.300000000000     0          
T        Si     0.529225000000     0.870150000000     0.350000000000     0          
O        O      0.631075000000     0.957725000000     0.350000000000     0          
O        O      0.594550000000     0.750000000000     0.200000000000     0          
T        Si     0.590925000000     0.970775000000     0.350000000000     0          
O        O      0.576650000000     0.868925000000     0.350000000000     0          
O        O      0.655450000000     0.905450000000     0.300000000000     0          
T        Si     0.629850000000     0.909075000000     0.350000000000     0          
O        O      0.500000000000     0.844550000000     0.200000000000     0          
O        O      0.594550000000     0.750000000000     0.300000000000     0          
O        O      0.655450000000     0.905450000000     0.200000000000     0          
O        O      0.673350000000     0.792275000000     0.250000000000     0          
T        Si     0.620150000000     0.779225000000     0.250000000000     0          
O        O      0.618925000000     0.826650000000     0.250000000000     0          
T        Si     0.659075000000     0.879850000000     0.250000000000     0          
O        O      0.707725000000     0.881075000000     0.250000000000     0          
T        Si     0.720775000000     0.840925000000     0.250000000000     0          
O        O      0.542275000000     0.923350000000     0.550000000000     0          
O        O      0.500000000000     0.844550000000     0.500000000000     0          
T        Si     0.529225000000     0.870150000000     0.550000000000     0          
O        O      0.631075000000     0.957725000000     0.550000000000     0          
O        O      0.594550000000     0.750000000000     0.400000000000     0          
T        Si     0.590925000000     0.970775000000     0.550000000000     0          
O        O      0.576650000000     0.868925000000     0.550000000000     0          
O        O      0.655450000000     0.905450000000     0.500000000000     0          
T        Si     0.629850000000     0.909075000000     0.550000000000     0          
O        O      0.500000000000     0.844550000000     0.400000000000     0          
O        O      0.594550000000     0.750000000000     0.500000000000     0          
O        O      0.655450000000     0.905450000000     0.400000000000     0          
O        O      0.673350000000     0.792275000000     0.450000000000     0          
T        Si     0.620150000000     0.779225000000     0.450000000000     0          
O        O      0.618925000000     0.826650000000     0.450000000000     0          
T        Si     0.659075000000     0.879850000000     0.450000000000     0          
O        O      0.707725000000     0.881075000000     0.450000000000     0          
T        Si     0.720775000000     0.840925000000     0.450000000000     0          
O        O      0.542275000000     0.923350000000     0.750000000000     0          
O        O      0.500000000000     0.844550000000     0.700000000000     0          
T        Si     0.529225000000     0.870150000000     0.750000000000     0          
O        O      0.631075000000     0.957725000000     0.750000000000     0          
O        O      0.594550000000     0.750000000000     0.600000000000     0          
T        Si     0.590925000000     0.970775000000     0.750000000000     0          
O        O      0.576650000000     0.868925000000     0.750000000000     0          
O        O      0.655450000000     0.905450000000     0.700000000000     0          
T        Si     0.629850000000     0.909075000000     0.750000000000     0          
O        O      0.500000000000     0.844550000000     0.600000000000     0          
O        O      0.594550000000     0.750000000000     0.700000000000     0          
O        O      0.655450000000     0.905450000000     0.600000000000     0          
O        O      0.673350000000     0.792275000000     0.650000000000     0          
T        Si     0.620150000000     0.779225000000     0.650000000000     0          
O        O      0.618925000000     0.826650000000     0.650000000000     0          
T        Si     0.659075000000     0.879850000000     0.650000000000     0          
O        O      0.707725000000     0.881075000000     0.650000000000     0          
T        Si     0.720775000000     0.840925000000     0.650000000000     0          
O        O      0.542275000000     0.923350000000     0.950000000000     0          
O        O      0.500000000000     0.844550000000     0.900000000000     0          
T        Si     0.529225000000     0.870150000000     0.950000000000     0          
O        O      0.631075000000     0.957725000000     0.950000000000     0          
O        O      0.594550000000     0.750000000000     0.800000000000     0          
T        Si     0.590925000000     0.970775000000     0.950000000000     0          
O        O      0.576650000000     0.868925000000     0.950000000000     0          
O        O      0.655450000000     0.905450000000     0.900000000000     0          
T        Si     0.629850000000     0.909075000000     0.950000000000     0          
O        O      0.500000000000     0.844550000000     0.800000000000     0          
O        O      0.594550000000     0.750000000000     0.900000000000     0          
O        O      0.655450000000     0.905450000000     0.800000000000     0          
O        O      0.673350000000     0.792275000000     0.850000000000     0          
T        Si     0.620150000000     0.779225000000     0.850000000000     0          
O        O      0.618925000000     0.826650000000     0.850000000000     0          
T        Si     0.659075000000     0.879850000000     0.850000000000     0          
O        O      0.707725000000     0.881075000000     0.850000000000     0          
T        Si     0.720775000000     0.840925000000     0.850000000000     0          
O        O      0.792275000000     0.173350000000     0.150000000000     0          
O        O      0.750000000000     0.094550000000     0.100000000000     0          
T        Si     0.779225000000     0.120150000000     0.150000000000     0          
O        O      0.881075000000     0.207725000000     0.150000000000     0          
O        O      0.844550000000     0.000000000000     0.000000000000     0          
T        Si     0.840925000000     0.220775000000     0.150000000000     0          
O        O      0.826650000000     0.118925000000     0.150000000000     0          
O        O      0.905450000000     0.155450000000     0.100000000000     0          
T        Si     0.879850000000     0.159075000000     0.150000000000     0          
O        O      0.750000000000     0.094550000000     0.000000000000     0          
O        O      0.844550000000     0.000000000000     0.100000000000     0          
O        O      0.905450000000     0.155450000000     0.000000000000     0          
O        O      0.923350000000     0.042275000000     0.050000000000     0          
T        Si     0.870150000000     0.029225000000     0.050000000000     0          
O        O      0.868925000000     0.076650000000     0.050000000000     0          
T        Si     0.909075000000     0.129850000000     0.050000000000     0          
O        O      0.957725000000     0.131075000000     0.050000000000     0          
T        Si     0.970775000000     0.090925000000     0.050000000000     0          
O        O      0.792275000000     0.173350000000     0.350000000000     0          
O        O      0.750000000000     0.094550000000     0.300000000000     0          
T        Si     0.779225000000     0.120150000000     0.350000000000     0          
O        O      0.881075000000     0.207725000000     0.350000000000     0          
O        O      0.844550000000     0.000000000000     0.200000000000     0          
T        Si     0.840925000000     0.220775000000     0.350000000000     0          
O        O      0.826650000000     0.118925000000     0.350000000000     0          
O        O      0.905450000000     0.155450000000     0.300000000000     0          
T        Si     0.879850000000     0.159075000000     0.350000000000     0          
O        O      0.750000000000     0.094550000000     0.200000000000     0          
O        O      0.844550000000     0.000000000000     0.300000000000     0          
O        O      0.905450000000     0.155450000000     0.200000000000     0          
O        O      0.923350000000     0.042275000000     0.250000000000     0          
T        Si     0.870150000000     0.029225000000     0.250000000000     0          
O        O      0.868925000000     0.076650000000     0.250000000000     0          
T        Si     0.909075000000     0.129850000000     0.250000000000     0          
O        O      0.957725000000     0.131075000000     0.250000000000     0          
T        Si     0.970775000000     0.090925000000     0.250000000000     0          
O        O      0.792275000000     0.173350000000     0.550000000000     0          
O        O      0.750000000000     0.094550000000     0.500000000000     0          
T        Si     0.779225000000     0.120150000000     0.550000000000     0          
O        O      0.881075000000     0.207725000000     0.550000000000     0          
O        O      0.844550000000     0.000000000000     0.400000000000     0          
T        Si     0.840925000000     0.220775000000     0.550000000000     0          
O        O      0.826650000000     0.118925000000     0.550000000000     0          
O        O      0.905450000000     0.155450000000     0.500000000000     0          
T        Si     0.879850000000     0.159075000000     0.550000000000     0          
O        O      0.750000000000     0.094550000000     0.400000000000     0          
O        O      0.844550000000     0.000000000000     0.500000000000     0          
O        O      0.905450000000     0.155450000000     0.400000000000     0          
O        O      0.923350000000     0.042275000000     0.450000000000     0          
T        Si     0.870150000000     0.029225000000     0.450000000000     0          
O        O      0.868925000000     0.076650000000     0.450000000000     0          
T        Si     0.909075000000     0.129850000000     0.450000000000     0          
O        O      0.957725000000     0.131075000000     0.450000000000     0          
T        Si     0.970775000000     0.090925000000     0.450000000000     0          
O        O      0.792275000000     0.173350000000     0.750000000000     0          
O        O      0.750000000000     0.094550000000     0.700000000000     0          
T        Si     0.779225000000     0.120150000000     0.750000000000     0          
O        O      0.881075000000     0.207725000000     0.750000000000     0          
O        O      0.844550000000     0.000000000000     0.600000000000     0          
T        Si     0.840925000000     0.220775000000     0.750000000000     0          
O        O      0.826650000000     0.118925000000     0.750000000000     0          
O        O      0.905450000000     0.155450000000     0.700000000000     0          
T        Si     0.879850000000     0.159075000000     0.750000000000     0          
O        O      0.750000000000     0.094550000000     0.600000000000     0          
O        O      0.844550000000     0.000000000000     0.700000000000     0          
O        O      0.905450000000     0.155450000000     0.600000000000     0          
O        O      0.923350000000     0.042275000000     0.650000000000     0          
T        Si     0.870150000000     0.029225000000     0.650000000000     0          
O        O      0.868925000000     0.076650000000     0.650000000000     0          
T        Si     0.909075000000     0.129850000000     0.650000000000     0          
O        O      0.957725000000     0.131075000000     0.650000000000     0          
T        Si     0.970775000000     0.090925000000     0.650000000000     0          
O        O      0.792275000000     0.173350000000     0.950000000000     0          
O        O      0.750000000000     0.094550000000     0.900000000000     0          
T        Si     0.779225000000     0.120150000000     0.950000000000     0          
O        O      0.881075000000     0.207725000000     0.950000000000     0          
O        O      0.844550000000     0.000000000000     0.800000000000     0          
T        Si     0.840925000000     0.220775000000     0.950000000000     0          
O        O      0.826650000000     0.118925000000     0.950000000000     0          
O        O      0.905450000000     0.155450000000     0.900000000000     0          
T        Si     0.879850000000     0.159075000000     0.950000000000     0          
O        O      0.750000000000     0.094550000000     0.800000000000     0          
O        O      0.844550000000     0.000000000000     0.900000000000     0          
O        O      0.905450000000     0.155450000000     0.800000000000     0          
O        O      0.923350000000     0.042275000000     0.850000000000     0          
T        Si     0.870150000000     0.029225000000     0.850000000000     0          
O        O      0.868925000000     0.076650000000     0.850000000000     0          
T        Si     0.909075000000     0.129850000000     0.850000000000     0          
O        O      0.957725000000     0.131075000000     0.850000000000     0          
T        Si     0.970775000000     0.090925000000     0.850000000000     0          
O        O      0.792275000000     0.423350000000     0.150000000000     0          
O        O      0.750000000000     0.344550000000     0.100000000000     0          
T        Si     0.779225000000     0.370150000000     0.150000000000     0          
O        O      0.881075000000     0.457725000000     0.150000000000     0          
O        O      0.844550000000     0.250000000000     0.000000000000     0          
T        Si     0.840925000000     0.470775000000     0.150000000000     0          
O        O      0.826650000000     0.368925000000     0.150000000000     0          
O        O      0.905450000000     0.405450000000     0.100000000000     0          
T        Si     0.879850000000     0.409075000000     0.150000000000     0          
O        O      0.750000000000     0.344550000000     0.000000000000     0          
O        O      0.844550000000     0.250000000000     0.100000000000     0          
O        O      0.905450000000     0.405450000000     0.000000000000     0          
O        O      0.923350000000     0.292275000000     0.050000000000     0          
T        Si     0.870150000000     0.279225000000     0.050000000000     0          
O        O      0.868925000000     0.326650000000     0.050000000000     0          
T        Si     0.909075000000     0.379850000000     0.050000000000     0          
O        O      0.957725000000     0.381075000000     0.050000000000     0          
T        Si     0.970775000000     0.340925000000     0.050000000000     0          
O        O      0.792275000000     0.423350000000     0.350000000000     0          
O        O      0.750000000000     0.344550000000     0.300000000000     0          
T        Si     0.779225000000     0.370150000000     0.350000000000     0          
O        O      0.881075000000     0.457725000000     0.350000000000     0          
O        O      0.844550000000     0.250000000000     0.200000000000     0          
T        Si     0.840925000000     0.470775000000     0.350000000000     0          
O        O      0.826650000000     0.368925000000     0.350000000000     0          
O        O      0.905450000000     0.405450000000     0.300000000000     0          
T        Si     0.879850000000     0.409075000000     0.350000000000     0          
O        O      0.750000000000     0.344550000000     0.200000000000     0          
O        O      0.844550000000     0.250000000000     0.300000000000     0          
O        O      0.905450000000     0.405450000000     0.200000000000     0          
O        O      0.923350000000     0.292275000000     0.250000000000     0          
T        Si     0.870150000000     0.279225000000     0.250000000000     0          
O        O      0.868925000000     0.326650000000     0.250000000000     0          
T        Si     0.909075000000     0.379850000000     0.250000000000     0          
O        O      0.957725000000     0.381075000000     0.250000000000     0          
T        Si     0.970775000000     0.340925000000     0.250000000000     0          
O        O      0.792275000000     0.423350000000     0.550000000000     0          
O        O      0.750000000000     0.344550000000     0.500000000000     0          
T        Si     0.779225000000     0.370150000000     0.550000000000     0          
O        O      0.881075000000     0.457725000000     0.550000000000     0          
O        O      0.844550000000     0.250000000000     0.400000000000     0          
T        Si     0.840925000000     0.470775000000     0.550000000000     0          
O        O      0.826650000000     0.368925000000     0.550000000000     0          
O        O      0.905450000000     0.405450000000     0.500000000000     0          
T        Si     0.879850000000     0.409075000000     0.550000000000     0          
O        O      0.750000000000     0.344550000000     0.400000000000     0          
O        O      0.844550000000     0.250000000000     0.500000000000     0          
O        O      0.905450000000     0.405450000000     0.400000000000     0          
O        O      0.923350000000     0.292275000000     0.450000000000     0          
T        Si     0.870150000000     0.279225000000     0.450000000000     0          
O        O      0.868925000000     0.326650000000     0.450000000000     0          
T        Si     0.909075000000     0.379850000000     0.450000000000     0          
O        O      0.957725000000     0.381075000000     0.450000000000     0          
T        Si     0.970775000000     0.340925000000     0.450000000000     0          
O        O      0.792275000000     0.423350000000     0.750000000000     0          
O        O      0.750000000000     0.344550000000     0.700000000000     0          
T        Si     0.779225000000     0.370150000000     0.750000000000     0          
O        O      0.881075000000     0.457725000000     0.750000000000     0          
O        O      0.844550000000     0.250000000000     0.600000000000     0          
T        Si     0.840925000000     0.470775000000     0.750000000000     0          
O        O      0.826650000000     0.368925000000     0.750000000000     0          
O        O      0.905450000000     0.405450000000     0.700000000000     0          
T        Si     0.879850000000     0.409075000000     0.750000000000     0          
O        O      0.750000000000     0.344550000000     0.600000000000     0          
O        O      0.844550000000     0.250000000000     0.700000000000     0          
O        O      0.905450000000     0.405450000000     0.600000000000     0          
O        O      0.923350000000     0.292275000000     0.650000000000     0          
T        Si     0.870150000000     0.279225000000     0.650000000000     0          
O        O      0.868925000000     0.326650000000     0.650000000000     0          
T        Si     0.909075000000     0.379850000000     0.650000000000     0          
O        O      0.957725000000     0.381075000000     0.650000000000     0          
T        Si     0.970775000000     0.340925000000     0.650000000000     0          
O        O      0.792275000000     0.423350000000     0.950000000000     0          
O        O      0.750000000000     0.344550000000     0.900000000000     0          
T        Si     0.779225000000     0.370150000000     0.950000000000     0          
O        O      0.881075000000     0.457725000000     0.950000000000     0          
O        O      0.844550000000     0.250000000000     0.800000000000     0          
T        Si     0.840925000000     0.470775000000     0.950000000000     0          
O        O      0.826650000000     0.368925000000     0.950000000000     0          
O        O      0.905450000000     0.405450000000     0.900000000000     0          
T        Si     0.879850000000     0.409075000000     0.950000000000     0          
O        O      0.750000000000     0.344550000000     0.800000000000     0          
O        O      0.844550000000     0.250000000000     0.900000000000     0          
O        O      0.905450000000     0.405450000000     0.800000000000     0          
O        O      0.923350000000     0.292275000000     0.850000000000     0          
T        Si     0.870150000000     0.279225000000     0.850000000000     0          
O        O      0.868925000000     0.326650000000     0.850000000000     0          
T        Si     0.909075000000     0.379850000000     0.850000000000     0          
O        O      0.957725000000     0.381075000000     0.850000000000     0          
T        Si     0.970775000000     0.340925000000     0.850000000000     0          
O        O      0.792275000000     0.673350000000     0.150000000000     0          
O        O      0.750000000000     0.594550000000     0.100000000000     0          
T        Si     0.779225000000     0.620150000000     0.150000000000     0          
O        O      0.881075000000     0.707725000000     0.150000000000     0          
O        O      0.844550000000     0.500000000000     0.000000000000     0          
T        Si     0.840925000000     0.720775000000     0.150000000000     0          
O        O      0.826650000000     0.618925000000     0.150000000000     0          
O        O      0.905450000000     0.655450000000     0.100000000000     0          
T        Si     0.879850000000     0.659075000000     0.150000000000     0          
O        O      0.750000000000     0.594550000000     0.000000000000     0          
O        O      0.844550000000     0.500000000000     0.100000000000     0          
O        O      0.905450000000     0.655450000000     0.000000000000     0          
O        O      0.923350000000     0.542275000000     0.050000000000     0          
T        Si     0.870150000000     0.529225000000     0.050000000000     0          
O        O      0.868925000000     0.576650000000     0.050000000000     0          
T        Si     0.909075000000     0.629850000000     0.050000000000     0          
O        O      0.957725000000     0.631075000000     0.050000000000     0          
T        Si     0.970775000000     0.590925000000     0.050000000000     0          
O        O      0.792275000000     0.673350000000     0.350000000000     0          
O        O      0.750000000000     0.594550000000     0.300000000000     0          
T        Si     0.779225000000     0.620150000000     0.350000000000     0          
O        O      0.881075000000     0.707725000000     0.350000000000     0          
O        O      0.844550000000     0.500000000000     0.200000000000     0          
T        Si     0.840925000000     0.720775000000     0.350000000000     0          
O        O      0.826650000000     0.618925000000     0.350000000000     0          
O        O      0.905450000000     0.655450000000     0.300000000000     0          
T        Si     0.879850000000     0.659075000000     0.350000000000     0          
O        O      0.750000000000     0.594550000000     0.200000000000     0          
O        O      0.844550000000     0.500000000000     0.300000000000     0          
O        O      0.905450000000     0.655450000000     0.200000000000     0          
O        O      0.923350000000     0.542275000000     0.250000000000     0          
T        Si     0.870150000000     0.529225000000     0.250000000000     0          
O        O      0.868925000000     0.576650000000     0.250000000000     0          
T        Si     0.909075000000     0.629850000000     0.250000000000     0          
O        O      0.957725000000     0.631075000000     0.250000000000     0          
T        Si     0.970775000000     0.590925000000     0.250000000000     0          
O        O      0.792275000000     0.673350000000     0.550000000000     0          
O        O      0.750000000000     0.594550000000     0.500000000000     0          
T        Si     0.779225000000     0.620150000000     0.550000000000     0          
O        O      0.881075000000     0.707725000000     0.550000000000     0          
O        O      0.844550000000     0.500000000000     0.400000000000     0          
T        Si     0.840925000000     0.720775000000     0.550000000000     0          
O        O      0.826650000000     0.618925000000     0.550000000000     0          
O        O      0.905450000000     0.655450000000     0.500000000000     0          
T        Si     0.879850000000     0.659075000000     0.550000000000     0          
O        O      0.750000000000     0.594550000000     0.400000000000     0          
O        O      0.844550000000     0.500000000000     0.500000000000     0          
O        O      0.905450000000     0.655450000000     0.400000000000     0          
O        O      0.923350000000     0.542275000000     0.450000000000     0          
T        Si     0.870150000000     0.529225000000     0.450000000000     0          
O        O      0.868925000000     0.576650000000     0.450000000000     0          
T        Si     0.909075000000     0.629850000000     0.450000000000     0          
O        O      0.957725000000     0.631075000000     0.450000000000     0          
T        Si     0.970775000000     0.590925000000     0.450000000000     0          
O        O      0.792275000000     0.673350000000     0.750000000000     0          
O        O      0.750000000000     0.594550000000     0.700000000000     0          
T        Si     0.779225000000     0.620150000000     0.750000000000     0          
O        O      0.881075000000     0.707725000000     0.750000000000     0          
O        O      0.844550000000     0.500000000000     0.600000000000     0          
T        Si     0.840925000000     0.720775000000     0.750000000000     0          
O        O      0.826650000000     0.618925000000     0.750000000000     0          
O        O      0.905450000000     0.655450000000     0.700000000000     0          
T        Si     0.879850000000     0.659075000000     0.750000000000     0          
O        O      0.750000000000     0.594550000000     0.600000000000     0          
O        O      0.844550000000     0.500000000000     0.700000000000     0          
O        O      0.905450000000     0.655450000000     0.600000000000     0          
O        O      0.923350000000     0.542275000000     0.650000000000     0          
T        Si     0.870150000000     0.529225000000     0.650000000000     0          
O        O      0.868925000000     0.576650000000     0.650000000000     0          
T        Si     0.909075000000     0.629850000000     0.650000000000     0          
O        O      0.957725000000     0.631075000000     0.650000000000     0          
T        Si     0.970775000000     0.590925000000     0.650000000000     0          
O        O      0.792275000000     0.673350000000     0.950000000000     0          
O        O      0.750000000000     0.594550000000     0.900000000000     0          
T        Si     0.779225000000     0.620150000000     0.950000000000     0          
O        O      0.881075000000     0.707725000000     0.950000000000     0          
O        O      0.844550000000     0.500000000000     0.800000000000     0          
T        Si     0.840925000000     0.720775000000     0.950000000000     0          
O        O      0.826650000000     0.618925000000     0.950000000000     0          
O        O      0.905450000000     0.655450000000     0.900000000000     0          
T        Si     0.879850000000     0.659075000000     0.950000000000     0          
O        O      0.750000000000     0.594550000000     0.800000000000     0          
O        O      0.844550000000     0.500000000000     0.900000000000     0          
O        O      0.905450000000     0.655450000000     0.800000000000     0          
O        O      0.923350000000     0.542275000000     0.850000000000     0          
T        Si     0.870150000000     0.529225000000     0.850000000000     0          
O        O      0.868925000000     0.576650000000     0.850000000000     0          
T        Si     0.909075000000     0.629850000000     0.850000000000     0          
O        O      0.957725000000     0.631075000000     0.850000000000     0          
T        Si     0.970775000000     0.590925000000     0.850000000000     0          
O        O      0.792275000000     0.923350000000     0.150000000000     0          
O        O      0.750000000000     0.844550000000     0.100000000000     0          
T        Si     0.779225000000     0.870150000000     0.150000000000     0          
O        O      0.881075000000     0.957725000000     0.150000000000     0          
O        O      0.844550000000     0.750000000000     0.000000000000     0          
T        Si     0.840925000000     0.970775000000     0.150000000000     0          
O        O      0.826650000000     0.868925000000     0.150000000000     0          
O        O      0.905450000000     0.905450000000     0.100000000000     0          
T        Si     0.879850000000     0.909075000000     0.150000000000     0          
O        O      0.750000000000     0.844550000000     0.000000000000     0          
O        O      0.844550000000     0.750000000000     0.100000000000     0          
O        O      0.905450000000     0.905450000000     0.000000000000     0          
O        O      0.923350000000     0.792275000000     0.050000000000     0          
T        Si     0.870150000000     0.779225000000     0.050000000000     0          
O        O      0.868925000000     0.826650000000     0.050000000000     0          
T        Si     0.909075000000     0.879850000000     0.050000000000     0          
O        O      0.957725000000     0.881075000000     0.050000000000     0          
T        Si     0.970775000000     0.840925000000     0.050000000000     0          
O        O      0.792275000000     0.923350000000     0.350000000000     0          
O        O      0.750000000000     0.844550000000     0.300000000000     0          
T        Si     0.779225000000     0.870150000000     0.350000000000     0          
O        O      0.881075000000     0.957725000000     0.350000000000     0          
O        O      0.844550000000     0.750000000000     0.200000000000     0          
T        Si     0.840925000000     0.970775000000     0.350000000000     0          
O        O      0.826650000000     0.868925000000     0.350000000000     0          
O        O      0.905450000000     0.905450000000     0.300000000000     0          
T        Si     0.879850000000     0.909075000000     0.350000000000     0          
O        O      0.750000000000     0.844550000000     0.200000000000     0          
O        O      0.844550000000     0.750000000000     0.300000000000     0          
O        O      0.905450000000     0.905450000000     0.200000000000     0          
O        O      0.923350000000     0.792275000000     0.250000000000     0          
T        Si     0.870150000000     0.779225000000     0.250000000000     0          
O        O      0.868925000000     0.826650000000     0.250000000000     0          
T        Si     0.909075000000     0.879850000000     0.250000000000     0          
O        O      0.957725000000     0.881075000000     0.250000000000     0          
T        Si     0.970775000000     0.840925000000     0.250000000000     0          
O        O      0.792275000000     0.923350000000     0.550000000000     0          
O        O      0.750000000000     0.844550000000     0.500000000000     0          
T        Si     0.779225000000     0.870150000000     0.550000000000     0          
O        O      0.881075000000     0.957725000000     0.550000000000     0          
O        O      0.844550000000     0.750000000000     0.400000000000     0          
T        Si     0.840925000000     0.970775000000     0.550000000000     0          
O        O      0.826650000000     0.868925000000     0.550000000000     0          
O        O      0.905450000000     0.905450000000     0.500000000000     0          
T        Si     0.879850000000     0.909075000000     0.550000000000     0          
O        O      0.750000000000     0.844550000000     0.400000000000     0          
O        O      0.844550000000     0.750000000000     0.500000000000     0          
O        O      0.905450000000     0.905450000000     0.400000000000     0          
O        O      0.923350000000     0.792275000000     0.450000000000     0          
T        Si     0.870150000000     0.779225000000     0.450000000000     0          
O        O      0.868925000000     0.826650000000     0.450000000000     0          
T        Si     0.909075000000     0.879850000000     0.450000000000     0          
O        O      0.957725000000     0.881075000000     0.450000000000     0          
T        Si     0.970775000000     0.840925000000     0.450000000000     0          
O        O      0.792275000000     0.923350000000     0.750000000000     0          
O        O      0.750000000000     0.844550000000     0.700000000000     0          
T        Si     0.779225000000     0.870150000000     0.750000000000     0          
O        O      0.881075000000     0.957725000000     0.750000000000     0          
O        O      0.844550000000     0.750000000000     0.600000000000     0          
T        Si     0.840925000000     0.970775000000     0.750000000000     0          
O        O      0.826650000000     0.868925000000     0.750000000000     0          
O        O      0.905450000000     0.905450000000     0.700000000000     0          
T        Si     0.879850000000     0.909075000000     0.750000000000     0          
O        O      0.750000000000     0.844550000000     0.600000000000     0          
O        O      0.844550000000     0.750000000000     0.700000000000     0          
O        O      0.905450000000     0.905450000000     0.600000000000     0          
O        O      0.923350000000     0.792275000000     0.650000000000     0          
T        Si     0.870150000000     0.779225000000     0.650000000000     0          
O        O      0.868925000000     0.826650000000     0.650000000000     0          
T        Si     0.909075000000     0.879850000000     0.650000000000     0          
O        O      0.957725000000     0.881075000000     0.650000000000     0          
T        Si     0.970775000000     0.840925000000     0.650000000000     0          
O        O      0.792275000000     0.923350000000     0.950000000000     0          
O        O      0.750000000000     0.844550000000     0.900000000000     0          
T        Si     0.779225000000     0.870150000000     0.950000000000     0          
O        O      0.881075000000     0.957725000000     0.950000000000     0          
O        O      0.844550000000     0.750000000000     0.800000000000     0          
T        Si     0.840925000000     0.970775000000     0.950000000000     0          
O        O      0.826650000000     0.868925000000     0.950000000000     0          
O        O      0.905450000000     0.905450000000     0.900000000000     0          
T        Si     0.879850000000     0.909075000000     0.950000000000     0          
O        O      0.750000000000     0.844550000000     0.800000000000     0          
O        O      0.844550000000     0.750000000000     0.900000000000     0          
O        O      0.905450000000     0.905450000000     0.800000000000     0          
O        O      0.923350000000     0.792275000000     0.850000000000     0          
T        Si     0.870150000000     0.779225000000     0.850000000000     0          
O        O      0.868925000000     0.826650000000     0.850000000000     0          
T        Si     0.909075000000     0.879850000000     0.850000000000     0          
O        O      0.957725000000     0.881075000000     0.850000000000     0          
T        Si     0.970775000000     0.840925000000     0.850000000000     0          


