data_zeolite

_audit_creation_method RASPA-1.0
_audit_creation_date 2021-6-7
_audit_author_name ''

_cell_length_a    12.566
_cell_length_b    11.662
_cell_length_c    21.93
_cell_angle_alpha 90
_cell_angle_beta  90
_cell_angle_gamma 90
_cell_volume      57847.1

_symmetry_cell_setting          orthorhombic
_symmetry_space_group_name_Hall 'P 1'
_symmetry_space_group_name_H-M  'P 1'
_symmetry_Int_Tables_number     1

_symmetry_equiv_pos_as_xyz 'x,y,z'

loop_
_atom_site_label
_atom_site_type_symbol
_atom_site_fract_x
_atom_site_fract_y
_atom_site_fract_z
_atom_site_charge
T        Si     0.166666666667     0.122766666667     0.429900000000     0          
T        Si     0.292933333333     0.122400000000     0.347950000000     0          
T        Si     0.228100000000     0.083233333333     0.319250000000     0          
T        Si     0.166666666667     0.122766666667     0.356650000000     0          
T        Si     0.291700000000     0.123133333333     0.417700000000     0          
T        Si     0.233333333333     0.095200000000     0.195450000000     0          
T        Si     0.207300000000     0.122933333333     0.257200000000     0          
T        Si     0.207400000000     0.166666666667     0.085400000000     0          
T        Si     0.207433333333     0.166666666667     0.158700000000     0          
T        Si     0.166666666667     0.210566666667     0.429900000000     0          
T        Si     0.040400000000     0.210933333333     0.347950000000     0          
T        Si     0.105233333333     0.250100000000     0.319250000000     0          
T        Si     0.166666666667     0.210566666667     0.356650000000     0          
T        Si     0.041633333333     0.210200000000     0.417700000000     0          
T        Si     0.100000000000     0.238133333333     0.195450000000     0          
T        Si     0.126033333333     0.210400000000     0.257200000000     0          
T        Si     0.125933333333     0.166666666667     0.085400000000     0          
T        Si     0.125900000000     0.166666666667     0.158700000000     0          
T        Si     0.040400000000     0.122400000000     0.347950000000     0          
T        Si     0.105233333333     0.083233333333     0.319250000000     0          
T        Si     0.041633333333     0.123133333333     0.417700000000     0          
T        Si     0.100000000000     0.095200000000     0.195450000000     0          
T        Si     0.126033333333     0.122933333333     0.257200000000     0          
T        Si     0.292933333333     0.210933333333     0.347950000000     0          
T        Si     0.228100000000     0.250100000000     0.319250000000     0          
T        Si     0.291700000000     0.210200000000     0.417700000000     0          
T        Si     0.233333333333     0.238133333333     0.195450000000     0          
T        Si     0.207300000000     0.210400000000     0.257200000000     0          
T        Si     0.166666666667     0.289433333333     0.179900000000     0          
T        Si     0.292933333333     0.289066666667     0.097950000000     0          
T        Si     0.228100000000     0.249900000000     0.069250000000     0          
T        Si     0.166666666667     0.289433333333     0.106650000000     0          
T        Si     0.291700000000     0.289800000000     0.167700000000     0          
T        Si     0.233333333333     0.261866666667     0.445450000000     0          
T        Si     0.207300000000     0.289600000000     0.007200000000     0          
T        Si     0.207400000000     0.000000000000     0.335400000000     0          
T        Si     0.207433333333     0.000000000000     0.408700000000     0          
T        Si     0.166666666667     0.043900000000     0.179900000000     0          
T        Si     0.040400000000     0.044266666667     0.097950000000     0          
T        Si     0.105233333333     0.083433333333     0.069250000000     0          
T        Si     0.166666666667     0.043900000000     0.106650000000     0          
T        Si     0.041633333333     0.043533333333     0.167700000000     0          
T        Si     0.100000000000     0.071466666667     0.445450000000     0          
T        Si     0.126033333333     0.043733333333     0.007200000000     0          
T        Si     0.125933333333     0.000000000000     0.335400000000     0          
T        Si     0.125900000000     0.000000000000     0.408700000000     0          
T        Si     0.040400000000     0.289066666667     0.097950000000     0          
T        Si     0.105233333333     0.249900000000     0.069250000000     0          
T        Si     0.041633333333     0.289800000000     0.167700000000     0          
T        Si     0.100000000000     0.261866666667     0.445450000000     0          
T        Si     0.126033333333     0.289600000000     0.007200000000     0          
T        Si     0.292933333333     0.044266666667     0.097950000000     0          
T        Si     0.228100000000     0.083433333333     0.069250000000     0          
T        Si     0.291700000000     0.043533333333     0.167700000000     0          
T        Si     0.233333333333     0.071466666667     0.445450000000     0          
T        Si     0.207300000000     0.043733333333     0.007200000000     0          
T        Si     0.166666666667     0.122766666667     0.929900000000     0          
T        Si     0.292933333333     0.122400000000     0.847950000000     0          
T        Si     0.228100000000     0.083233333333     0.819250000000     0          
T        Si     0.166666666667     0.122766666667     0.856650000000     0          
T        Si     0.291700000000     0.123133333333     0.917700000000     0          
T        Si     0.233333333333     0.095200000000     0.695450000000     0          
T        Si     0.207300000000     0.122933333333     0.757200000000     0          
T        Si     0.207400000000     0.166666666667     0.585400000000     0          
T        Si     0.207433333333     0.166666666667     0.658700000000     0          
T        Si     0.166666666667     0.210566666667     0.929900000000     0          
T        Si     0.040400000000     0.210933333333     0.847950000000     0          
T        Si     0.105233333333     0.250100000000     0.819250000000     0          
T        Si     0.166666666667     0.210566666667     0.856650000000     0          
T        Si     0.041633333333     0.210200000000     0.917700000000     0          
T        Si     0.100000000000     0.238133333333     0.695450000000     0          
T        Si     0.126033333333     0.210400000000     0.757200000000     0          
T        Si     0.125933333333     0.166666666667     0.585400000000     0          
T        Si     0.125900000000     0.166666666667     0.658700000000     0          
T        Si     0.040400000000     0.122400000000     0.847950000000     0          
T        Si     0.105233333333     0.083233333333     0.819250000000     0          
T        Si     0.041633333333     0.123133333333     0.917700000000     0          
T        Si     0.100000000000     0.095200000000     0.695450000000     0          
T        Si     0.126033333333     0.122933333333     0.757200000000     0          
T        Si     0.292933333333     0.210933333333     0.847950000000     0          
T        Si     0.228100000000     0.250100000000     0.819250000000     0          
T        Si     0.291700000000     0.210200000000     0.917700000000     0          
T        Si     0.233333333333     0.238133333333     0.695450000000     0          
T        Si     0.207300000000     0.210400000000     0.757200000000     0          
T        Si     0.166666666667     0.289433333333     0.679900000000     0          
T        Si     0.292933333333     0.289066666667     0.597950000000     0          
T        Si     0.228100000000     0.249900000000     0.569250000000     0          
T        Si     0.166666666667     0.289433333333     0.606650000000     0          
T        Si     0.291700000000     0.289800000000     0.667700000000     0          
T        Si     0.233333333333     0.261866666667     0.945450000000     0          
T        Si     0.207300000000     0.289600000000     0.507200000000     0          
T        Si     0.207400000000     0.000000000000     0.835400000000     0          
T        Si     0.207433333333     0.000000000000     0.908700000000     0          
T        Si     0.166666666667     0.043900000000     0.679900000000     0          
T        Si     0.040400000000     0.044266666667     0.597950000000     0          
T        Si     0.105233333333     0.083433333333     0.569250000000     0          
T        Si     0.166666666667     0.043900000000     0.606650000000     0          
T        Si     0.041633333333     0.043533333333     0.667700000000     0          
T        Si     0.100000000000     0.071466666667     0.945450000000     0          
T        Si     0.126033333333     0.043733333333     0.507200000000     0          
T        Si     0.125933333333     0.000000000000     0.835400000000     0          
T        Si     0.125900000000     0.000000000000     0.908700000000     0          
T        Si     0.040400000000     0.289066666667     0.597950000000     0          
T        Si     0.105233333333     0.249900000000     0.569250000000     0          
T        Si     0.041633333333     0.289800000000     0.667700000000     0          
T        Si     0.100000000000     0.261866666667     0.945450000000     0          
T        Si     0.126033333333     0.289600000000     0.507200000000     0          
T        Si     0.292933333333     0.044266666667     0.597950000000     0          
T        Si     0.228100000000     0.083433333333     0.569250000000     0          
T        Si     0.291700000000     0.043533333333     0.667700000000     0          
T        Si     0.233333333333     0.071466666667     0.945450000000     0          
T        Si     0.207300000000     0.043733333333     0.507200000000     0          
T        Si     0.166666666667     0.456100000000     0.429900000000     0          
T        Si     0.292933333333     0.455733333333     0.347950000000     0          
T        Si     0.228100000000     0.416566666667     0.319250000000     0          
T        Si     0.166666666667     0.456100000000     0.356650000000     0          
T        Si     0.291700000000     0.456466666667     0.417700000000     0          
T        Si     0.233333333333     0.428533333333     0.195450000000     0          
T        Si     0.207300000000     0.456266666667     0.257200000000     0          
T        Si     0.207400000000     0.500000000000     0.085400000000     0          
T        Si     0.207433333333     0.500000000000     0.158700000000     0          
T        Si     0.166666666667     0.543900000000     0.429900000000     0          
T        Si     0.040400000000     0.544266666667     0.347950000000     0          
T        Si     0.105233333333     0.583433333333     0.319250000000     0          
T        Si     0.166666666667     0.543900000000     0.356650000000     0          
T        Si     0.041633333333     0.543533333333     0.417700000000     0          
T        Si     0.100000000000     0.571466666667     0.195450000000     0          
T        Si     0.126033333333     0.543733333333     0.257200000000     0          
T        Si     0.125933333333     0.500000000000     0.085400000000     0          
T        Si     0.125900000000     0.500000000000     0.158700000000     0          
T        Si     0.040400000000     0.455733333333     0.347950000000     0          
T        Si     0.105233333333     0.416566666667     0.319250000000     0          
T        Si     0.041633333333     0.456466666667     0.417700000000     0          
T        Si     0.100000000000     0.428533333333     0.195450000000     0          
T        Si     0.126033333333     0.456266666667     0.257200000000     0          
T        Si     0.292933333333     0.544266666667     0.347950000000     0          
T        Si     0.228100000000     0.583433333333     0.319250000000     0          
T        Si     0.291700000000     0.543533333333     0.417700000000     0          
T        Si     0.233333333333     0.571466666667     0.195450000000     0          
T        Si     0.207300000000     0.543733333333     0.257200000000     0          
T        Si     0.166666666667     0.622766666667     0.179900000000     0          
T        Si     0.292933333333     0.622400000000     0.097950000000     0          
T        Si     0.228100000000     0.583233333333     0.069250000000     0          
T        Si     0.166666666667     0.622766666667     0.106650000000     0          
T        Si     0.291700000000     0.623133333333     0.167700000000     0          
T        Si     0.233333333333     0.595200000000     0.445450000000     0          
T        Si     0.207300000000     0.622933333333     0.007200000000     0          
T        Si     0.207400000000     0.333333333333     0.335400000000     0          
T        Si     0.207433333333     0.333333333333     0.408700000000     0          
T        Si     0.166666666667     0.377233333333     0.179900000000     0          
T        Si     0.040400000000     0.377600000000     0.097950000000     0          
T        Si     0.105233333333     0.416766666667     0.069250000000     0          
T        Si     0.166666666667     0.377233333333     0.106650000000     0          
T        Si     0.041633333333     0.376866666667     0.167700000000     0          
T        Si     0.100000000000     0.404800000000     0.445450000000     0          
T        Si     0.126033333333     0.377066666667     0.007200000000     0          
T        Si     0.125933333333     0.333333333333     0.335400000000     0          
T        Si     0.125900000000     0.333333333333     0.408700000000     0          
T        Si     0.040400000000     0.622400000000     0.097950000000     0          
T        Si     0.105233333333     0.583233333333     0.069250000000     0          
T        Si     0.041633333333     0.623133333333     0.167700000000     0          
T        Si     0.100000000000     0.595200000000     0.445450000000     0          
T        Si     0.126033333333     0.622933333333     0.007200000000     0          
T        Si     0.292933333333     0.377600000000     0.097950000000     0          
T        Si     0.228100000000     0.416766666667     0.069250000000     0          
T        Si     0.291700000000     0.376866666667     0.167700000000     0          
T        Si     0.233333333333     0.404800000000     0.445450000000     0          
T        Si     0.207300000000     0.377066666667     0.007200000000     0          
T        Si     0.166666666667     0.456100000000     0.929900000000     0          
T        Si     0.292933333333     0.455733333333     0.847950000000     0          
T        Si     0.228100000000     0.416566666667     0.819250000000     0          
T        Si     0.166666666667     0.456100000000     0.856650000000     0          
T        Si     0.291700000000     0.456466666667     0.917700000000     0          
T        Si     0.233333333333     0.428533333333     0.695450000000     0          
T        Si     0.207300000000     0.456266666667     0.757200000000     0          
T        Si     0.207400000000     0.500000000000     0.585400000000     0          
T        Si     0.207433333333     0.500000000000     0.658700000000     0          
T        Si     0.166666666667     0.543900000000     0.929900000000     0          
T        Si     0.040400000000     0.544266666667     0.847950000000     0          
T        Si     0.105233333333     0.583433333333     0.819250000000     0          
T        Si     0.166666666667     0.543900000000     0.856650000000     0          
T        Si     0.041633333333     0.543533333333     0.917700000000     0          
T        Si     0.100000000000     0.571466666667     0.695450000000     0          
T        Si     0.126033333333     0.543733333333     0.757200000000     0          
T        Si     0.125933333333     0.500000000000     0.585400000000     0          
T        Si     0.125900000000     0.500000000000     0.658700000000     0          
T        Si     0.040400000000     0.455733333333     0.847950000000     0          
T        Si     0.105233333333     0.416566666667     0.819250000000     0          
T        Si     0.041633333333     0.456466666667     0.917700000000     0          
T        Si     0.100000000000     0.428533333333     0.695450000000     0          
T        Si     0.126033333333     0.456266666667     0.757200000000     0          
T        Si     0.292933333333     0.544266666667     0.847950000000     0          
T        Si     0.228100000000     0.583433333333     0.819250000000     0          
T        Si     0.291700000000     0.543533333333     0.917700000000     0          
T        Si     0.233333333333     0.571466666667     0.695450000000     0          
T        Si     0.207300000000     0.543733333333     0.757200000000     0          
T        Si     0.166666666667     0.622766666667     0.679900000000     0          
T        Si     0.292933333333     0.622400000000     0.597950000000     0          
T        Si     0.228100000000     0.583233333333     0.569250000000     0          
T        Si     0.166666666667     0.622766666667     0.606650000000     0          
T        Si     0.291700000000     0.623133333333     0.667700000000     0          
T        Si     0.233333333333     0.595200000000     0.945450000000     0          
T        Si     0.207300000000     0.622933333333     0.507200000000     0          
T        Si     0.207400000000     0.333333333333     0.835400000000     0          
T        Si     0.207433333333     0.333333333333     0.908700000000     0          
T        Si     0.166666666667     0.377233333333     0.679900000000     0          
T        Si     0.040400000000     0.377600000000     0.597950000000     0          
T        Si     0.105233333333     0.416766666667     0.569250000000     0          
T        Si     0.166666666667     0.377233333333     0.606650000000     0          
T        Si     0.041633333333     0.376866666667     0.667700000000     0          
T        Si     0.100000000000     0.404800000000     0.945450000000     0          
T        Si     0.126033333333     0.377066666667     0.507200000000     0          
T        Si     0.125933333333     0.333333333333     0.835400000000     0          
T        Si     0.125900000000     0.333333333333     0.908700000000     0          
T        Si     0.040400000000     0.622400000000     0.597950000000     0          
T        Si     0.105233333333     0.583233333333     0.569250000000     0          
T        Si     0.041633333333     0.623133333333     0.667700000000     0          
T        Si     0.100000000000     0.595200000000     0.945450000000     0          
T        Si     0.126033333333     0.622933333333     0.507200000000     0          
T        Si     0.292933333333     0.377600000000     0.597950000000     0          
T        Si     0.228100000000     0.416766666667     0.569250000000     0          
T        Si     0.291700000000     0.376866666667     0.667700000000     0          
T        Si     0.233333333333     0.404800000000     0.945450000000     0          
T        Si     0.207300000000     0.377066666667     0.507200000000     0          
T        Si     0.166666666667     0.789433333333     0.429900000000     0          
T        Si     0.292933333333     0.789066666667     0.347950000000     0          
T        Si     0.228100000000     0.749900000000     0.319250000000     0          
T        Si     0.166666666667     0.789433333333     0.356650000000     0          
T        Si     0.291700000000     0.789800000000     0.417700000000     0          
T        Si     0.233333333333     0.761866666667     0.195450000000     0          
T        Si     0.207300000000     0.789600000000     0.257200000000     0          
T        Si     0.207400000000     0.833333333333     0.085400000000     0          
T        Si     0.207433333333     0.833333333333     0.158700000000     0          
T        Si     0.166666666667     0.877233333333     0.429900000000     0          
T        Si     0.040400000000     0.877600000000     0.347950000000     0          
T        Si     0.105233333333     0.916766666667     0.319250000000     0          
T        Si     0.166666666667     0.877233333333     0.356650000000     0          
T        Si     0.041633333333     0.876866666667     0.417700000000     0          
T        Si     0.100000000000     0.904800000000     0.195450000000     0          
T        Si     0.126033333333     0.877066666667     0.257200000000     0          
T        Si     0.125933333333     0.833333333333     0.085400000000     0          
T        Si     0.125900000000     0.833333333333     0.158700000000     0          
T        Si     0.040400000000     0.789066666667     0.347950000000     0          
T        Si     0.105233333333     0.749900000000     0.319250000000     0          
T        Si     0.041633333333     0.789800000000     0.417700000000     0          
T        Si     0.100000000000     0.761866666667     0.195450000000     0          
T        Si     0.126033333333     0.789600000000     0.257200000000     0          
T        Si     0.292933333333     0.877600000000     0.347950000000     0          
T        Si     0.228100000000     0.916766666667     0.319250000000     0          
T        Si     0.291700000000     0.876866666667     0.417700000000     0          
T        Si     0.233333333333     0.904800000000     0.195450000000     0          
T        Si     0.207300000000     0.877066666667     0.257200000000     0          
T        Si     0.166666666667     0.956100000000     0.179900000000     0          
T        Si     0.292933333333     0.955733333333     0.097950000000     0          
T        Si     0.228100000000     0.916566666667     0.069250000000     0          
T        Si     0.166666666667     0.956100000000     0.106650000000     0          
T        Si     0.291700000000     0.956466666667     0.167700000000     0          
T        Si     0.233333333333     0.928533333333     0.445450000000     0          
T        Si     0.207300000000     0.956266666667     0.007200000000     0          
T        Si     0.207400000000     0.666666666667     0.335400000000     0          
T        Si     0.207433333333     0.666666666667     0.408700000000     0          
T        Si     0.166666666667     0.710566666667     0.179900000000     0          
T        Si     0.040400000000     0.710933333333     0.097950000000     0          
T        Si     0.105233333333     0.750100000000     0.069250000000     0          
T        Si     0.166666666667     0.710566666667     0.106650000000     0          
T        Si     0.041633333333     0.710200000000     0.167700000000     0          
T        Si     0.100000000000     0.738133333333     0.445450000000     0          
T        Si     0.126033333333     0.710400000000     0.007200000000     0          
T        Si     0.125933333333     0.666666666667     0.335400000000     0          
T        Si     0.125900000000     0.666666666667     0.408700000000     0          
T        Si     0.040400000000     0.955733333333     0.097950000000     0          
T        Si     0.105233333333     0.916566666667     0.069250000000     0          
T        Si     0.041633333333     0.956466666667     0.167700000000     0          
T        Si     0.100000000000     0.928533333333     0.445450000000     0          
T        Si     0.126033333333     0.956266666667     0.007200000000     0          
T        Si     0.292933333333     0.710933333333     0.097950000000     0          
T        Si     0.228100000000     0.750100000000     0.069250000000     0          
T        Si     0.291700000000     0.710200000000     0.167700000000     0          
T        Si     0.233333333333     0.738133333333     0.445450000000     0          
T        Si     0.207300000000     0.710400000000     0.007200000000     0          
T        Si     0.166666666667     0.789433333333     0.929900000000     0          
T        Si     0.292933333333     0.789066666667     0.847950000000     0          
T        Si     0.228100000000     0.749900000000     0.819250000000     0          
T        Si     0.166666666667     0.789433333333     0.856650000000     0          
T        Si     0.291700000000     0.789800000000     0.917700000000     0          
T        Si     0.233333333333     0.761866666667     0.695450000000     0          
T        Si     0.207300000000     0.789600000000     0.757200000000     0          
T        Si     0.207400000000     0.833333333333     0.585400000000     0          
T        Si     0.207433333333     0.833333333333     0.658700000000     0          
T        Si     0.166666666667     0.877233333333     0.929900000000     0          
T        Si     0.040400000000     0.877600000000     0.847950000000     0          
T        Si     0.105233333333     0.916766666667     0.819250000000     0          
T        Si     0.166666666667     0.877233333333     0.856650000000     0          
T        Si     0.041633333333     0.876866666667     0.917700000000     0          
T        Si     0.100000000000     0.904800000000     0.695450000000     0          
T        Si     0.126033333333     0.877066666667     0.757200000000     0          
T        Si     0.125933333333     0.833333333333     0.585400000000     0          
T        Si     0.125900000000     0.833333333333     0.658700000000     0          
T        Si     0.040400000000     0.789066666667     0.847950000000     0          
T        Si     0.105233333333     0.749900000000     0.819250000000     0          
T        Si     0.041633333333     0.789800000000     0.917700000000     0          
T        Si     0.100000000000     0.761866666667     0.695450000000     0          
T        Si     0.126033333333     0.789600000000     0.757200000000     0          
T        Si     0.292933333333     0.877600000000     0.847950000000     0          
T        Si     0.228100000000     0.916766666667     0.819250000000     0          
T        Si     0.291700000000     0.876866666667     0.917700000000     0          
T        Si     0.233333333333     0.904800000000     0.695450000000     0          
T        Si     0.207300000000     0.877066666667     0.757200000000     0          
T        Si     0.166666666667     0.956100000000     0.679900000000     0          
T        Si     0.292933333333     0.955733333333     0.597950000000     0          
T        Si     0.228100000000     0.916566666667     0.569250000000     0          
T        Si     0.166666666667     0.956100000000     0.606650000000     0          
T        Si     0.291700000000     0.956466666667     0.667700000000     0          
T        Si     0.233333333333     0.928533333333     0.945450000000     0          
T        Si     0.207300000000     0.956266666667     0.507200000000     0          
T        Si     0.207400000000     0.666666666667     0.835400000000     0          
T        Si     0.207433333333     0.666666666667     0.908700000000     0          
T        Si     0.166666666667     0.710566666667     0.679900000000     0          
T        Si     0.040400000000     0.710933333333     0.597950000000     0          
T        Si     0.105233333333     0.750100000000     0.569250000000     0          
T        Si     0.166666666667     0.710566666667     0.606650000000     0          
T        Si     0.041633333333     0.710200000000     0.667700000000     0          
T        Si     0.100000000000     0.738133333333     0.945450000000     0          
T        Si     0.126033333333     0.710400000000     0.507200000000     0          
T        Si     0.125933333333     0.666666666667     0.835400000000     0          
T        Si     0.125900000000     0.666666666667     0.908700000000     0          
T        Si     0.040400000000     0.955733333333     0.597950000000     0          
T        Si     0.105233333333     0.916566666667     0.569250000000     0          
T        Si     0.041633333333     0.956466666667     0.667700000000     0          
T        Si     0.100000000000     0.928533333333     0.945450000000     0          
T        Si     0.126033333333     0.956266666667     0.507200000000     0          
T        Si     0.292933333333     0.710933333333     0.597950000000     0          
T        Si     0.228100000000     0.750100000000     0.569250000000     0          
T        Si     0.291700000000     0.710200000000     0.667700000000     0          
T        Si     0.233333333333     0.738133333333     0.945450000000     0          
T        Si     0.207300000000     0.710400000000     0.507200000000     0          
T        Si     0.500000000000     0.122766666667     0.429900000000     0          
T        Si     0.626266666667     0.122400000000     0.347950000000     0          
T        Si     0.561433333333     0.083233333333     0.319250000000     0          
T        Si     0.500000000000     0.122766666667     0.356650000000     0          
T        Si     0.625033333333     0.123133333333     0.417700000000     0          
T        Si     0.566666666667     0.095200000000     0.195450000000     0          
T        Si     0.540633333333     0.122933333333     0.257200000000     0          
T        Si     0.540733333333     0.166666666667     0.085400000000     0          
T        Si     0.540766666667     0.166666666667     0.158700000000     0          
T        Si     0.500000000000     0.210566666667     0.429900000000     0          
T        Si     0.373733333333     0.210933333333     0.347950000000     0          
T        Si     0.438566666667     0.250100000000     0.319250000000     0          
T        Si     0.500000000000     0.210566666667     0.356650000000     0          
T        Si     0.374966666667     0.210200000000     0.417700000000     0          
T        Si     0.433333333333     0.238133333333     0.195450000000     0          
T        Si     0.459366666667     0.210400000000     0.257200000000     0          
T        Si     0.459266666667     0.166666666667     0.085400000000     0          
T        Si     0.459233333333     0.166666666667     0.158700000000     0          
T        Si     0.373733333333     0.122400000000     0.347950000000     0          
T        Si     0.438566666667     0.083233333333     0.319250000000     0          
T        Si     0.374966666667     0.123133333333     0.417700000000     0          
T        Si     0.433333333333     0.095200000000     0.195450000000     0          
T        Si     0.459366666667     0.122933333333     0.257200000000     0          
T        Si     0.626266666667     0.210933333333     0.347950000000     0          
T        Si     0.561433333333     0.250100000000     0.319250000000     0          
T        Si     0.625033333333     0.210200000000     0.417700000000     0          
T        Si     0.566666666667     0.238133333333     0.195450000000     0          
T        Si     0.540633333333     0.210400000000     0.257200000000     0          
T        Si     0.500000000000     0.289433333333     0.179900000000     0          
T        Si     0.626266666667     0.289066666667     0.097950000000     0          
T        Si     0.561433333333     0.249900000000     0.069250000000     0          
T        Si     0.500000000000     0.289433333333     0.106650000000     0          
T        Si     0.625033333333     0.289800000000     0.167700000000     0          
T        Si     0.566666666667     0.261866666667     0.445450000000     0          
T        Si     0.540633333333     0.289600000000     0.007200000000     0          
T        Si     0.540733333333     0.000000000000     0.335400000000     0          
T        Si     0.540766666667     0.000000000000     0.408700000000     0          
T        Si     0.500000000000     0.043900000000     0.179900000000     0          
T        Si     0.373733333333     0.044266666667     0.097950000000     0          
T        Si     0.438566666667     0.083433333333     0.069250000000     0          
T        Si     0.500000000000     0.043900000000     0.106650000000     0          
T        Si     0.374966666667     0.043533333333     0.167700000000     0          
T        Si     0.433333333333     0.071466666667     0.445450000000     0          
T        Si     0.459366666667     0.043733333333     0.007200000000     0          
T        Si     0.459266666667     0.000000000000     0.335400000000     0          
T        Si     0.459233333333     0.000000000000     0.408700000000     0          
T        Si     0.373733333333     0.289066666667     0.097950000000     0          
T        Si     0.438566666667     0.249900000000     0.069250000000     0          
T        Si     0.374966666667     0.289800000000     0.167700000000     0          
T        Si     0.433333333333     0.261866666667     0.445450000000     0          
T        Si     0.459366666667     0.289600000000     0.007200000000     0          
T        Si     0.626266666667     0.044266666667     0.097950000000     0          
T        Si     0.561433333333     0.083433333333     0.069250000000     0          
T        Si     0.625033333333     0.043533333333     0.167700000000     0          
T        Si     0.566666666667     0.071466666667     0.445450000000     0          
T        Si     0.540633333333     0.043733333333     0.007200000000     0          
T        Si     0.500000000000     0.122766666667     0.929900000000     0          
T        Si     0.626266666667     0.122400000000     0.847950000000     0          
T        Si     0.561433333333     0.083233333333     0.819250000000     0          
T        Si     0.500000000000     0.122766666667     0.856650000000     0          
T        Si     0.625033333333     0.123133333333     0.917700000000     0          
T        Si     0.566666666667     0.095200000000     0.695450000000     0          
T        Si     0.540633333333     0.122933333333     0.757200000000     0          
T        Si     0.540733333333     0.166666666667     0.585400000000     0          
T        Si     0.540766666667     0.166666666667     0.658700000000     0          
T        Si     0.500000000000     0.210566666667     0.929900000000     0          
T        Si     0.373733333333     0.210933333333     0.847950000000     0          
T        Si     0.438566666667     0.250100000000     0.819250000000     0          
T        Si     0.500000000000     0.210566666667     0.856650000000     0          
T        Si     0.374966666667     0.210200000000     0.917700000000     0          
T        Si     0.433333333333     0.238133333333     0.695450000000     0          
T        Si     0.459366666667     0.210400000000     0.757200000000     0          
T        Si     0.459266666667     0.166666666667     0.585400000000     0          
T        Si     0.459233333333     0.166666666667     0.658700000000     0          
T        Si     0.373733333333     0.122400000000     0.847950000000     0          
T        Si     0.438566666667     0.083233333333     0.819250000000     0          
T        Si     0.374966666667     0.123133333333     0.917700000000     0          
T        Si     0.433333333333     0.095200000000     0.695450000000     0          
T        Si     0.459366666667     0.122933333333     0.757200000000     0          
T        Si     0.626266666667     0.210933333333     0.847950000000     0          
T        Si     0.561433333333     0.250100000000     0.819250000000     0          
T        Si     0.625033333333     0.210200000000     0.917700000000     0          
T        Si     0.566666666667     0.238133333333     0.695450000000     0          
T        Si     0.540633333333     0.210400000000     0.757200000000     0          
T        Si     0.500000000000     0.289433333333     0.679900000000     0          
T        Si     0.626266666667     0.289066666667     0.597950000000     0          
T        Si     0.561433333333     0.249900000000     0.569250000000     0          
T        Si     0.500000000000     0.289433333333     0.606650000000     0          
T        Si     0.625033333333     0.289800000000     0.667700000000     0          
T        Si     0.566666666667     0.261866666667     0.945450000000     0          
T        Si     0.540633333333     0.289600000000     0.507200000000     0          
T        Si     0.540733333333     0.000000000000     0.835400000000     0          
T        Si     0.540766666667     0.000000000000     0.908700000000     0          
T        Si     0.500000000000     0.043900000000     0.679900000000     0          
T        Si     0.373733333333     0.044266666667     0.597950000000     0          
T        Si     0.438566666667     0.083433333333     0.569250000000     0          
T        Si     0.500000000000     0.043900000000     0.606650000000     0          
T        Si     0.374966666667     0.043533333333     0.667700000000     0          
T        Si     0.433333333333     0.071466666667     0.945450000000     0          
T        Si     0.459366666667     0.043733333333     0.507200000000     0          
T        Si     0.459266666667     0.000000000000     0.835400000000     0          
T        Si     0.459233333333     0.000000000000     0.908700000000     0          
T        Si     0.373733333333     0.289066666667     0.597950000000     0          
T        Si     0.438566666667     0.249900000000     0.569250000000     0          
T        Si     0.374966666667     0.289800000000     0.667700000000     0          
T        Si     0.433333333333     0.261866666667     0.945450000000     0          
T        Si     0.459366666667     0.289600000000     0.507200000000     0          
T        Si     0.626266666667     0.044266666667     0.597950000000     0          
T        Si     0.561433333333     0.083433333333     0.569250000000     0          
T        Si     0.625033333333     0.043533333333     0.667700000000     0          
T        Si     0.566666666667     0.071466666667     0.945450000000     0          
T        Si     0.540633333333     0.043733333333     0.507200000000     0          
T        Si     0.500000000000     0.456100000000     0.429900000000     0          
T        Si     0.626266666667     0.455733333333     0.347950000000     0          
T        Si     0.561433333333     0.416566666667     0.319250000000     0          
T        Si     0.500000000000     0.456100000000     0.356650000000     0          
T        Si     0.625033333333     0.456466666667     0.417700000000     0          
T        Si     0.566666666667     0.428533333333     0.195450000000     0          
T        Si     0.540633333333     0.456266666667     0.257200000000     0          
T        Si     0.540733333333     0.500000000000     0.085400000000     0          
T        Si     0.540766666667     0.500000000000     0.158700000000     0          
T        Si     0.500000000000     0.543900000000     0.429900000000     0          
T        Si     0.373733333333     0.544266666667     0.347950000000     0          
T        Si     0.438566666667     0.583433333333     0.319250000000     0          
T        Si     0.500000000000     0.543900000000     0.356650000000     0          
T        Si     0.374966666667     0.543533333333     0.417700000000     0          
T        Si     0.433333333333     0.571466666667     0.195450000000     0          
T        Si     0.459366666667     0.543733333333     0.257200000000     0          
T        Si     0.459266666667     0.500000000000     0.085400000000     0          
T        Si     0.459233333333     0.500000000000     0.158700000000     0          
T        Si     0.373733333333     0.455733333333     0.347950000000     0          
T        Si     0.438566666667     0.416566666667     0.319250000000     0          
T        Si     0.374966666667     0.456466666667     0.417700000000     0          
T        Si     0.433333333333     0.428533333333     0.195450000000     0          
T        Si     0.459366666667     0.456266666667     0.257200000000     0          
T        Si     0.626266666667     0.544266666667     0.347950000000     0          
T        Si     0.561433333333     0.583433333333     0.319250000000     0          
T        Si     0.625033333333     0.543533333333     0.417700000000     0          
T        Si     0.566666666667     0.571466666667     0.195450000000     0          
T        Si     0.540633333333     0.543733333333     0.257200000000     0          
T        Si     0.500000000000     0.622766666667     0.179900000000     0          
T        Si     0.626266666667     0.622400000000     0.097950000000     0          
T        Si     0.561433333333     0.583233333333     0.069250000000     0          
T        Si     0.500000000000     0.622766666667     0.106650000000     0          
T        Si     0.625033333333     0.623133333333     0.167700000000     0          
T        Si     0.566666666667     0.595200000000     0.445450000000     0          
T        Si     0.540633333333     0.622933333333     0.007200000000     0          
T        Si     0.540733333333     0.333333333333     0.335400000000     0          
T        Si     0.540766666667     0.333333333333     0.408700000000     0          
T        Si     0.500000000000     0.377233333333     0.179900000000     0          
T        Si     0.373733333333     0.377600000000     0.097950000000     0          
T        Si     0.438566666667     0.416766666667     0.069250000000     0          
T        Si     0.500000000000     0.377233333333     0.106650000000     0          
T        Si     0.374966666667     0.376866666667     0.167700000000     0          
T        Si     0.433333333333     0.404800000000     0.445450000000     0          
T        Si     0.459366666667     0.377066666667     0.007200000000     0          
T        Si     0.459266666667     0.333333333333     0.335400000000     0          
T        Si     0.459233333333     0.333333333333     0.408700000000     0          
T        Si     0.373733333333     0.622400000000     0.097950000000     0          
T        Si     0.438566666667     0.583233333333     0.069250000000     0          
T        Si     0.374966666667     0.623133333333     0.167700000000     0          
T        Si     0.433333333333     0.595200000000     0.445450000000     0          
T        Si     0.459366666667     0.622933333333     0.007200000000     0          
T        Si     0.626266666667     0.377600000000     0.097950000000     0          
T        Si     0.561433333333     0.416766666667     0.069250000000     0          
T        Si     0.625033333333     0.376866666667     0.167700000000     0          
T        Si     0.566666666667     0.404800000000     0.445450000000     0          
T        Si     0.540633333333     0.377066666667     0.007200000000     0          
T        Si     0.500000000000     0.456100000000     0.929900000000     0          
T        Si     0.626266666667     0.455733333333     0.847950000000     0          
T        Si     0.561433333333     0.416566666667     0.819250000000     0          
T        Si     0.500000000000     0.456100000000     0.856650000000     0          
T        Si     0.625033333333     0.456466666667     0.917700000000     0          
T        Si     0.566666666667     0.428533333333     0.695450000000     0          
T        Si     0.540633333333     0.456266666667     0.757200000000     0          
T        Si     0.540733333333     0.500000000000     0.585400000000     0          
T        Si     0.540766666667     0.500000000000     0.658700000000     0          
T        Si     0.500000000000     0.543900000000     0.929900000000     0          
T        Si     0.373733333333     0.544266666667     0.847950000000     0          
T        Si     0.438566666667     0.583433333333     0.819250000000     0          
T        Si     0.500000000000     0.543900000000     0.856650000000     0          
T        Si     0.374966666667     0.543533333333     0.917700000000     0          
T        Si     0.433333333333     0.571466666667     0.695450000000     0          
T        Si     0.459366666667     0.543733333333     0.757200000000     0          
T        Si     0.459266666667     0.500000000000     0.585400000000     0          
T        Si     0.459233333333     0.500000000000     0.658700000000     0          
T        Si     0.373733333333     0.455733333333     0.847950000000     0          
T        Si     0.438566666667     0.416566666667     0.819250000000     0          
T        Si     0.374966666667     0.456466666667     0.917700000000     0          
T        Si     0.433333333333     0.428533333333     0.695450000000     0          
T        Si     0.459366666667     0.456266666667     0.757200000000     0          
T        Si     0.626266666667     0.544266666667     0.847950000000     0          
T        Si     0.561433333333     0.583433333333     0.819250000000     0          
T        Si     0.625033333333     0.543533333333     0.917700000000     0          
T        Si     0.566666666667     0.571466666667     0.695450000000     0          
T        Si     0.540633333333     0.543733333333     0.757200000000     0          
T        Si     0.500000000000     0.622766666667     0.679900000000     0          
T        Si     0.626266666667     0.622400000000     0.597950000000     0          
T        Si     0.561433333333     0.583233333333     0.569250000000     0          
T        Si     0.500000000000     0.622766666667     0.606650000000     0          
T        Si     0.625033333333     0.623133333333     0.667700000000     0          
T        Si     0.566666666667     0.595200000000     0.945450000000     0          
T        Si     0.540633333333     0.622933333333     0.507200000000     0          
T        Si     0.540733333333     0.333333333333     0.835400000000     0          
T        Si     0.540766666667     0.333333333333     0.908700000000     0          
T        Si     0.500000000000     0.377233333333     0.679900000000     0          
T        Si     0.373733333333     0.377600000000     0.597950000000     0          
T        Si     0.438566666667     0.416766666667     0.569250000000     0          
T        Si     0.500000000000     0.377233333333     0.606650000000     0          
T        Si     0.374966666667     0.376866666667     0.667700000000     0          
T        Si     0.433333333333     0.404800000000     0.945450000000     0          
T        Si     0.459366666667     0.377066666667     0.507200000000     0          
T        Si     0.459266666667     0.333333333333     0.835400000000     0          
T        Si     0.459233333333     0.333333333333     0.908700000000     0          
T        Si     0.373733333333     0.622400000000     0.597950000000     0          
T        Si     0.438566666667     0.583233333333     0.569250000000     0          
T        Si     0.374966666667     0.623133333333     0.667700000000     0          
T        Si     0.433333333333     0.595200000000     0.945450000000     0          
T        Si     0.459366666667     0.622933333333     0.507200000000     0          
T        Si     0.626266666667     0.377600000000     0.597950000000     0          
T        Si     0.561433333333     0.416766666667     0.569250000000     0          
T        Si     0.625033333333     0.376866666667     0.667700000000     0          
T        Si     0.566666666667     0.404800000000     0.945450000000     0          
T        Si     0.540633333333     0.377066666667     0.507200000000     0          
T        Si     0.500000000000     0.789433333333     0.429900000000     0          
T        Si     0.626266666667     0.789066666667     0.347950000000     0          
T        Si     0.561433333333     0.749900000000     0.319250000000     0          
T        Si     0.500000000000     0.789433333333     0.356650000000     0          
T        Si     0.625033333333     0.789800000000     0.417700000000     0          
T        Si     0.566666666667     0.761866666667     0.195450000000     0          
T        Si     0.540633333333     0.789600000000     0.257200000000     0          
T        Si     0.540733333333     0.833333333333     0.085400000000     0          
T        Si     0.540766666667     0.833333333333     0.158700000000     0          
T        Si     0.500000000000     0.877233333333     0.429900000000     0          
T        Si     0.373733333333     0.877600000000     0.347950000000     0          
T        Si     0.438566666667     0.916766666667     0.319250000000     0          
T        Si     0.500000000000     0.877233333333     0.356650000000     0          
T        Si     0.374966666667     0.876866666667     0.417700000000     0          
T        Si     0.433333333333     0.904800000000     0.195450000000     0          
T        Si     0.459366666667     0.877066666667     0.257200000000     0          
T        Si     0.459266666667     0.833333333333     0.085400000000     0          
T        Si     0.459233333333     0.833333333333     0.158700000000     0          
T        Si     0.373733333333     0.789066666667     0.347950000000     0          
T        Si     0.438566666667     0.749900000000     0.319250000000     0          
T        Si     0.374966666667     0.789800000000     0.417700000000     0          
T        Si     0.433333333333     0.761866666667     0.195450000000     0          
T        Si     0.459366666667     0.789600000000     0.257200000000     0          
T        Si     0.626266666667     0.877600000000     0.347950000000     0          
T        Si     0.561433333333     0.916766666667     0.319250000000     0          
T        Si     0.625033333333     0.876866666667     0.417700000000     0          
T        Si     0.566666666667     0.904800000000     0.195450000000     0          
T        Si     0.540633333333     0.877066666667     0.257200000000     0          
T        Si     0.500000000000     0.956100000000     0.179900000000     0          
T        Si     0.626266666667     0.955733333333     0.097950000000     0          
T        Si     0.561433333333     0.916566666667     0.069250000000     0          
T        Si     0.500000000000     0.956100000000     0.106650000000     0          
T        Si     0.625033333333     0.956466666667     0.167700000000     0          
T        Si     0.566666666667     0.928533333333     0.445450000000     0          
T        Si     0.540633333333     0.956266666667     0.007200000000     0          
T        Si     0.540733333333     0.666666666667     0.335400000000     0          
T        Si     0.540766666667     0.666666666667     0.408700000000     0          
T        Si     0.500000000000     0.710566666667     0.179900000000     0          
T        Si     0.373733333333     0.710933333333     0.097950000000     0          
T        Si     0.438566666667     0.750100000000     0.069250000000     0          
T        Si     0.500000000000     0.710566666667     0.106650000000     0          
T        Si     0.374966666667     0.710200000000     0.167700000000     0          
T        Si     0.433333333333     0.738133333333     0.445450000000     0          
T        Si     0.459366666667     0.710400000000     0.007200000000     0          
T        Si     0.459266666667     0.666666666667     0.335400000000     0          
T        Si     0.459233333333     0.666666666667     0.408700000000     0          
T        Si     0.373733333333     0.955733333333     0.097950000000     0          
T        Si     0.438566666667     0.916566666667     0.069250000000     0          
T        Si     0.374966666667     0.956466666667     0.167700000000     0          
T        Si     0.433333333333     0.928533333333     0.445450000000     0          
T        Si     0.459366666667     0.956266666667     0.007200000000     0          
T        Si     0.626266666667     0.710933333333     0.097950000000     0          
T        Si     0.561433333333     0.750100000000     0.069250000000     0          
T        Si     0.625033333333     0.710200000000     0.167700000000     0          
T        Si     0.566666666667     0.738133333333     0.445450000000     0          
T        Si     0.540633333333     0.710400000000     0.007200000000     0          
T        Si     0.500000000000     0.789433333333     0.929900000000     0          
T        Si     0.626266666667     0.789066666667     0.847950000000     0          
T        Si     0.561433333333     0.749900000000     0.819250000000     0          
T        Si     0.500000000000     0.789433333333     0.856650000000     0          
T        Si     0.625033333333     0.789800000000     0.917700000000     0          
T        Si     0.566666666667     0.761866666667     0.695450000000     0          
T        Si     0.540633333333     0.789600000000     0.757200000000     0          
T        Si     0.540733333333     0.833333333333     0.585400000000     0          
T        Si     0.540766666667     0.833333333333     0.658700000000     0          
T        Si     0.500000000000     0.877233333333     0.929900000000     0          
T        Si     0.373733333333     0.877600000000     0.847950000000     0          
T        Si     0.438566666667     0.916766666667     0.819250000000     0          
T        Si     0.500000000000     0.877233333333     0.856650000000     0          
T        Si     0.374966666667     0.876866666667     0.917700000000     0          
T        Si     0.433333333333     0.904800000000     0.695450000000     0          
T        Si     0.459366666667     0.877066666667     0.757200000000     0          
T        Si     0.459266666667     0.833333333333     0.585400000000     0          
T        Si     0.459233333333     0.833333333333     0.658700000000     0          
T        Si     0.373733333333     0.789066666667     0.847950000000     0          
T        Si     0.438566666667     0.749900000000     0.819250000000     0          
T        Si     0.374966666667     0.789800000000     0.917700000000     0          
T        Si     0.433333333333     0.761866666667     0.695450000000     0          
T        Si     0.459366666667     0.789600000000     0.757200000000     0          
T        Si     0.626266666667     0.877600000000     0.847950000000     0          
T        Si     0.561433333333     0.916766666667     0.819250000000     0          
T        Si     0.625033333333     0.876866666667     0.917700000000     0          
T        Si     0.566666666667     0.904800000000     0.695450000000     0          
T        Si     0.540633333333     0.877066666667     0.757200000000     0          
T        Si     0.500000000000     0.956100000000     0.679900000000     0          
T        Si     0.626266666667     0.955733333333     0.597950000000     0          
T        Si     0.561433333333     0.916566666667     0.569250000000     0          
T        Si     0.500000000000     0.956100000000     0.606650000000     0          
T        Si     0.625033333333     0.956466666667     0.667700000000     0          
T        Si     0.566666666667     0.928533333333     0.945450000000     0          
T        Si     0.540633333333     0.956266666667     0.507200000000     0          
T        Si     0.540733333333     0.666666666667     0.835400000000     0          
T        Si     0.540766666667     0.666666666667     0.908700000000     0          
T        Si     0.500000000000     0.710566666667     0.679900000000     0          
T        Si     0.373733333333     0.710933333333     0.597950000000     0          
T        Si     0.438566666667     0.750100000000     0.569250000000     0          
T        Si     0.500000000000     0.710566666667     0.606650000000     0          
T        Si     0.374966666667     0.710200000000     0.667700000000     0          
T        Si     0.433333333333     0.738133333333     0.945450000000     0          
T        Si     0.459366666667     0.710400000000     0.507200000000     0          
T        Si     0.459266666667     0.666666666667     0.835400000000     0          
T        Si     0.459233333333     0.666666666667     0.908700000000     0          
T        Si     0.373733333333     0.955733333333     0.597950000000     0          
T        Si     0.438566666667     0.916566666667     0.569250000000     0          
T        Si     0.374966666667     0.956466666667     0.667700000000     0          
T        Si     0.433333333333     0.928533333333     0.945450000000     0          
T        Si     0.459366666667     0.956266666667     0.507200000000     0          
T        Si     0.626266666667     0.710933333333     0.597950000000     0          
T        Si     0.561433333333     0.750100000000     0.569250000000     0          
T        Si     0.625033333333     0.710200000000     0.667700000000     0          
T        Si     0.566666666667     0.738133333333     0.945450000000     0          
T        Si     0.540633333333     0.710400000000     0.507200000000     0          
T        Si     0.833333333333     0.122766666667     0.429900000000     0          
T        Si     0.959600000000     0.122400000000     0.347950000000     0          
T        Si     0.894766666667     0.083233333333     0.319250000000     0          
T        Si     0.833333333333     0.122766666667     0.356650000000     0          
T        Si     0.958366666667     0.123133333333     0.417700000000     0          
T        Si     0.900000000000     0.095200000000     0.195450000000     0          
T        Si     0.873966666667     0.122933333333     0.257200000000     0          
T        Si     0.874066666667     0.166666666667     0.085400000000     0          
T        Si     0.874100000000     0.166666666667     0.158700000000     0          
T        Si     0.833333333333     0.210566666667     0.429900000000     0          
T        Si     0.707066666667     0.210933333333     0.347950000000     0          
T        Si     0.771900000000     0.250100000000     0.319250000000     0          
T        Si     0.833333333333     0.210566666667     0.356650000000     0          
T        Si     0.708300000000     0.210200000000     0.417700000000     0          
T        Si     0.766666666667     0.238133333333     0.195450000000     0          
T        Si     0.792700000000     0.210400000000     0.257200000000     0          
T        Si     0.792600000000     0.166666666667     0.085400000000     0          
T        Si     0.792566666667     0.166666666667     0.158700000000     0          
T        Si     0.707066666667     0.122400000000     0.347950000000     0          
T        Si     0.771900000000     0.083233333333     0.319250000000     0          
T        Si     0.708300000000     0.123133333333     0.417700000000     0          
T        Si     0.766666666667     0.095200000000     0.195450000000     0          
T        Si     0.792700000000     0.122933333333     0.257200000000     0          
T        Si     0.959600000000     0.210933333333     0.347950000000     0          
T        Si     0.894766666667     0.250100000000     0.319250000000     0          
T        Si     0.958366666667     0.210200000000     0.417700000000     0          
T        Si     0.900000000000     0.238133333333     0.195450000000     0          
T        Si     0.873966666667     0.210400000000     0.257200000000     0          
T        Si     0.833333333333     0.289433333333     0.179900000000     0          
T        Si     0.959600000000     0.289066666667     0.097950000000     0          
T        Si     0.894766666667     0.249900000000     0.069250000000     0          
T        Si     0.833333333333     0.289433333333     0.106650000000     0          
T        Si     0.958366666667     0.289800000000     0.167700000000     0          
T        Si     0.900000000000     0.261866666667     0.445450000000     0          
T        Si     0.873966666667     0.289600000000     0.007200000000     0          
T        Si     0.874066666667     0.000000000000     0.335400000000     0          
T        Si     0.874100000000     0.000000000000     0.408700000000     0          
T        Si     0.833333333333     0.043900000000     0.179900000000     0          
T        Si     0.707066666667     0.044266666667     0.097950000000     0          
T        Si     0.771900000000     0.083433333333     0.069250000000     0          
T        Si     0.833333333333     0.043900000000     0.106650000000     0          
T        Si     0.708300000000     0.043533333333     0.167700000000     0          
T        Si     0.766666666667     0.071466666667     0.445450000000     0          
T        Si     0.792700000000     0.043733333333     0.007200000000     0          
T        Si     0.792600000000     0.000000000000     0.335400000000     0          
T        Si     0.792566666667     0.000000000000     0.408700000000     0          
T        Si     0.707066666667     0.289066666667     0.097950000000     0          
T        Si     0.771900000000     0.249900000000     0.069250000000     0          
T        Si     0.708300000000     0.289800000000     0.167700000000     0          
T        Si     0.766666666667     0.261866666667     0.445450000000     0          
T        Si     0.792700000000     0.289600000000     0.007200000000     0          
T        Si     0.959600000000     0.044266666667     0.097950000000     0          
T        Si     0.894766666667     0.083433333333     0.069250000000     0          
T        Si     0.958366666667     0.043533333333     0.167700000000     0          
T        Si     0.900000000000     0.071466666667     0.445450000000     0          
T        Si     0.873966666667     0.043733333333     0.007200000000     0          
T        Si     0.833333333333     0.122766666667     0.929900000000     0          
T        Si     0.959600000000     0.122400000000     0.847950000000     0          
T        Si     0.894766666667     0.083233333333     0.819250000000     0          
T        Si     0.833333333333     0.122766666667     0.856650000000     0          
T        Si     0.958366666667     0.123133333333     0.917700000000     0          
T        Si     0.900000000000     0.095200000000     0.695450000000     0          
T        Si     0.873966666667     0.122933333333     0.757200000000     0          
T        Si     0.874066666667     0.166666666667     0.585400000000     0          
T        Si     0.874100000000     0.166666666667     0.658700000000     0          
T        Si     0.833333333333     0.210566666667     0.929900000000     0          
T        Si     0.707066666667     0.210933333333     0.847950000000     0          
T        Si     0.771900000000     0.250100000000     0.819250000000     0          
T        Si     0.833333333333     0.210566666667     0.856650000000     0          
T        Si     0.708300000000     0.210200000000     0.917700000000     0          
T        Si     0.766666666667     0.238133333333     0.695450000000     0          
T        Si     0.792700000000     0.210400000000     0.757200000000     0          
T        Si     0.792600000000     0.166666666667     0.585400000000     0          
T        Si     0.792566666667     0.166666666667     0.658700000000     0          
T        Si     0.707066666667     0.122400000000     0.847950000000     0          
T        Si     0.771900000000     0.083233333333     0.819250000000     0          
T        Si     0.708300000000     0.123133333333     0.917700000000     0          
T        Si     0.766666666667     0.095200000000     0.695450000000     0          
T        Si     0.792700000000     0.122933333333     0.757200000000     0          
T        Si     0.959600000000     0.210933333333     0.847950000000     0          
T        Si     0.894766666667     0.250100000000     0.819250000000     0          
T        Si     0.958366666667     0.210200000000     0.917700000000     0          
T        Si     0.900000000000     0.238133333333     0.695450000000     0          
T        Si     0.873966666667     0.210400000000     0.757200000000     0          
T        Si     0.833333333333     0.289433333333     0.679900000000     0          
T        Si     0.959600000000     0.289066666667     0.597950000000     0          
T        Si     0.894766666667     0.249900000000     0.569250000000     0          
T        Si     0.833333333333     0.289433333333     0.606650000000     0          
T        Si     0.958366666667     0.289800000000     0.667700000000     0          
T        Si     0.900000000000     0.261866666667     0.945450000000     0          
T        Si     0.873966666667     0.289600000000     0.507200000000     0          
T        Si     0.874066666667     0.000000000000     0.835400000000     0          
T        Si     0.874100000000     0.000000000000     0.908700000000     0          
T        Si     0.833333333333     0.043900000000     0.679900000000     0          
T        Si     0.707066666667     0.044266666667     0.597950000000     0          
T        Si     0.771900000000     0.083433333333     0.569250000000     0          
T        Si     0.833333333333     0.043900000000     0.606650000000     0          
T        Si     0.708300000000     0.043533333333     0.667700000000     0          
T        Si     0.766666666667     0.071466666667     0.945450000000     0          
T        Si     0.792700000000     0.043733333333     0.507200000000     0          
T        Si     0.792600000000     0.000000000000     0.835400000000     0          
T        Si     0.792566666667     0.000000000000     0.908700000000     0          
T        Si     0.707066666667     0.289066666667     0.597950000000     0          
T        Si     0.771900000000     0.249900000000     0.569250000000     0          
T        Si     0.708300000000     0.289800000000     0.667700000000     0          
T        Si     0.766666666667     0.261866666667     0.945450000000     0          
T        Si     0.792700000000     0.289600000000     0.507200000000     0          
T        Si     0.959600000000     0.044266666667     0.597950000000     0          
T        Si     0.894766666667     0.083433333333     0.569250000000     0          
T        Si     0.958366666667     0.043533333333     0.667700000000     0          
T        Si     0.900000000000     0.071466666667     0.945450000000     0          
T        Si     0.873966666667     0.043733333333     0.507200000000     0          
T        Si     0.833333333333     0.456100000000     0.429900000000     0          
T        Si     0.959600000000     0.455733333333     0.347950000000     0          
T        Si     0.894766666667     0.416566666667     0.319250000000     0          
T        Si     0.833333333333     0.456100000000     0.356650000000     0          
T        Si     0.958366666667     0.456466666667     0.417700000000     0          
T        Si     0.900000000000     0.428533333333     0.195450000000     0          
T        Si     0.873966666667     0.456266666667     0.257200000000     0          
T        Si     0.874066666667     0.500000000000     0.085400000000     0          
T        Si     0.874100000000     0.500000000000     0.158700000000     0          
T        Si     0.833333333333     0.543900000000     0.429900000000     0          
T        Si     0.707066666667     0.544266666667     0.347950000000     0          
T        Si     0.771900000000     0.583433333333     0.319250000000     0          
T        Si     0.833333333333     0.543900000000     0.356650000000     0          
T        Si     0.708300000000     0.543533333333     0.417700000000     0          
T        Si     0.766666666667     0.571466666667     0.195450000000     0          
T        Si     0.792700000000     0.543733333333     0.257200000000     0          
T        Si     0.792600000000     0.500000000000     0.085400000000     0          
T        Si     0.792566666667     0.500000000000     0.158700000000     0          
T        Si     0.707066666667     0.455733333333     0.347950000000     0          
T        Si     0.771900000000     0.416566666667     0.319250000000     0          
T        Si     0.708300000000     0.456466666667     0.417700000000     0          
T        Si     0.766666666667     0.428533333333     0.195450000000     0          
T        Si     0.792700000000     0.456266666667     0.257200000000     0          
T        Si     0.959600000000     0.544266666667     0.347950000000     0          
T        Si     0.894766666667     0.583433333333     0.319250000000     0          
T        Si     0.958366666667     0.543533333333     0.417700000000     0          
T        Si     0.900000000000     0.571466666667     0.195450000000     0          
T        Si     0.873966666667     0.543733333333     0.257200000000     0          
T        Si     0.833333333333     0.622766666667     0.179900000000     0          
T        Si     0.959600000000     0.622400000000     0.097950000000     0          
T        Si     0.894766666667     0.583233333333     0.069250000000     0          
T        Si     0.833333333333     0.622766666667     0.106650000000     0          
T        Si     0.958366666667     0.623133333333     0.167700000000     0          
T        Si     0.900000000000     0.595200000000     0.445450000000     0          
T        Si     0.873966666667     0.622933333333     0.007200000000     0          
T        Si     0.874066666667     0.333333333333     0.335400000000     0          
T        Si     0.874100000000     0.333333333333     0.408700000000     0          
T        Si     0.833333333333     0.377233333333     0.179900000000     0          
T        Si     0.707066666667     0.377600000000     0.097950000000     0          
T        Si     0.771900000000     0.416766666667     0.069250000000     0          
T        Si     0.833333333333     0.377233333333     0.106650000000     0          
T        Si     0.708300000000     0.376866666667     0.167700000000     0          
T        Si     0.766666666667     0.404800000000     0.445450000000     0          
T        Si     0.792700000000     0.377066666667     0.007200000000     0          
T        Si     0.792600000000     0.333333333333     0.335400000000     0          
T        Si     0.792566666667     0.333333333333     0.408700000000     0          
T        Si     0.707066666667     0.622400000000     0.097950000000     0          
T        Si     0.771900000000     0.583233333333     0.069250000000     0          
T        Si     0.708300000000     0.623133333333     0.167700000000     0          
T        Si     0.766666666667     0.595200000000     0.445450000000     0          
T        Si     0.792700000000     0.622933333333     0.007200000000     0          
T        Si     0.959600000000     0.377600000000     0.097950000000     0          
T        Si     0.894766666667     0.416766666667     0.069250000000     0          
T        Si     0.958366666667     0.376866666667     0.167700000000     0          
T        Si     0.900000000000     0.404800000000     0.445450000000     0          
T        Si     0.873966666667     0.377066666667     0.007200000000     0          
T        Si     0.833333333333     0.456100000000     0.929900000000     0          
T        Si     0.959600000000     0.455733333333     0.847950000000     0          
T        Si     0.894766666667     0.416566666667     0.819250000000     0          
T        Si     0.833333333333     0.456100000000     0.856650000000     0          
T        Si     0.958366666667     0.456466666667     0.917700000000     0          
T        Si     0.900000000000     0.428533333333     0.695450000000     0          
T        Si     0.873966666667     0.456266666667     0.757200000000     0          
T        Si     0.874066666667     0.500000000000     0.585400000000     0          
T        Si     0.874100000000     0.500000000000     0.658700000000     0          
T        Si     0.833333333333     0.543900000000     0.929900000000     0          
T        Si     0.707066666667     0.544266666667     0.847950000000     0          
T        Si     0.771900000000     0.583433333333     0.819250000000     0          
T        Si     0.833333333333     0.543900000000     0.856650000000     0          
T        Si     0.708300000000     0.543533333333     0.917700000000     0          
T        Si     0.766666666667     0.571466666667     0.695450000000     0          
T        Si     0.792700000000     0.543733333333     0.757200000000     0          
T        Si     0.792600000000     0.500000000000     0.585400000000     0          
T        Si     0.792566666667     0.500000000000     0.658700000000     0          
T        Si     0.707066666667     0.455733333333     0.847950000000     0          
T        Si     0.771900000000     0.416566666667     0.819250000000     0          
T        Si     0.708300000000     0.456466666667     0.917700000000     0          
T        Si     0.766666666667     0.428533333333     0.695450000000     0          
T        Si     0.792700000000     0.456266666667     0.757200000000     0          
T        Si     0.959600000000     0.544266666667     0.847950000000     0          
T        Si     0.894766666667     0.583433333333     0.819250000000     0          
T        Si     0.958366666667     0.543533333333     0.917700000000     0          
T        Si     0.900000000000     0.571466666667     0.695450000000     0          
T        Si     0.873966666667     0.543733333333     0.757200000000     0          
T        Si     0.833333333333     0.622766666667     0.679900000000     0          
T        Si     0.959600000000     0.622400000000     0.597950000000     0          
T        Si     0.894766666667     0.583233333333     0.569250000000     0          
T        Si     0.833333333333     0.622766666667     0.606650000000     0          
T        Si     0.958366666667     0.623133333333     0.667700000000     0          
T        Si     0.900000000000     0.595200000000     0.945450000000     0          
T        Si     0.873966666667     0.622933333333     0.507200000000     0          
T        Si     0.874066666667     0.333333333333     0.835400000000     0          
T        Si     0.874100000000     0.333333333333     0.908700000000     0          
T        Si     0.833333333333     0.377233333333     0.679900000000     0          
T        Si     0.707066666667     0.377600000000     0.597950000000     0          
T        Si     0.771900000000     0.416766666667     0.569250000000     0          
T        Si     0.833333333333     0.377233333333     0.606650000000     0          
T        Si     0.708300000000     0.376866666667     0.667700000000     0          
T        Si     0.766666666667     0.404800000000     0.945450000000     0          
T        Si     0.792700000000     0.377066666667     0.507200000000     0          
T        Si     0.792600000000     0.333333333333     0.835400000000     0          
T        Si     0.792566666667     0.333333333333     0.908700000000     0          
T        Si     0.707066666667     0.622400000000     0.597950000000     0          
T        Si     0.771900000000     0.583233333333     0.569250000000     0          
T        Si     0.708300000000     0.623133333333     0.667700000000     0          
T        Si     0.766666666667     0.595200000000     0.945450000000     0          
T        Si     0.792700000000     0.622933333333     0.507200000000     0          
T        Si     0.959600000000     0.377600000000     0.597950000000     0          
T        Si     0.894766666667     0.416766666667     0.569250000000     0          
T        Si     0.958366666667     0.376866666667     0.667700000000     0          
T        Si     0.900000000000     0.404800000000     0.945450000000     0          
T        Si     0.873966666667     0.377066666667     0.507200000000     0          
T        Si     0.833333333333     0.789433333333     0.429900000000     0          
T        Si     0.959600000000     0.789066666667     0.347950000000     0          
T        Si     0.894766666667     0.749900000000     0.319250000000     0          
T        Si     0.833333333333     0.789433333333     0.356650000000     0          
T        Si     0.958366666667     0.789800000000     0.417700000000     0          
T        Si     0.900000000000     0.761866666667     0.195450000000     0          
T        Si     0.873966666667     0.789600000000     0.257200000000     0          
T        Si     0.874066666667     0.833333333333     0.085400000000     0          
T        Si     0.874100000000     0.833333333333     0.158700000000     0          
T        Si     0.833333333333     0.877233333333     0.429900000000     0          
T        Si     0.707066666667     0.877600000000     0.347950000000     0          
T        Si     0.771900000000     0.916766666667     0.319250000000     0          
T        Si     0.833333333333     0.877233333333     0.356650000000     0          
T        Si     0.708300000000     0.876866666667     0.417700000000     0          
T        Si     0.766666666667     0.904800000000     0.195450000000     0          
T        Si     0.792700000000     0.877066666667     0.257200000000     0          
T        Si     0.792600000000     0.833333333333     0.085400000000     0          
T        Si     0.792566666667     0.833333333333     0.158700000000     0          
T        Si     0.707066666667     0.789066666667     0.347950000000     0          
T        Si     0.771900000000     0.749900000000     0.319250000000     0          
T        Si     0.708300000000     0.789800000000     0.417700000000     0          
T        Si     0.766666666667     0.761866666667     0.195450000000     0          
T        Si     0.792700000000     0.789600000000     0.257200000000     0          
T        Si     0.959600000000     0.877600000000     0.347950000000     0          
T        Si     0.894766666667     0.916766666667     0.319250000000     0          
T        Si     0.958366666667     0.876866666667     0.417700000000     0          
T        Si     0.900000000000     0.904800000000     0.195450000000     0          
T        Si     0.873966666667     0.877066666667     0.257200000000     0          
T        Si     0.833333333333     0.956100000000     0.179900000000     0          
T        Si     0.959600000000     0.955733333333     0.097950000000     0          
T        Si     0.894766666667     0.916566666667     0.069250000000     0          
T        Si     0.833333333333     0.956100000000     0.106650000000     0          
T        Si     0.958366666667     0.956466666667     0.167700000000     0          
T        Si     0.900000000000     0.928533333333     0.445450000000     0          
T        Si     0.873966666667     0.956266666667     0.007200000000     0          
T        Si     0.874066666667     0.666666666667     0.335400000000     0          
T        Si     0.874100000000     0.666666666667     0.408700000000     0          
T        Si     0.833333333333     0.710566666667     0.179900000000     0          
T        Si     0.707066666667     0.710933333333     0.097950000000     0          
T        Si     0.771900000000     0.750100000000     0.069250000000     0          
T        Si     0.833333333333     0.710566666667     0.106650000000     0          
T        Si     0.708300000000     0.710200000000     0.167700000000     0          
T        Si     0.766666666667     0.738133333333     0.445450000000     0          
T        Si     0.792700000000     0.710400000000     0.007200000000     0          
T        Si     0.792600000000     0.666666666667     0.335400000000     0          
T        Si     0.792566666667     0.666666666667     0.408700000000     0          
T        Si     0.707066666667     0.955733333333     0.097950000000     0          
T        Si     0.771900000000     0.916566666667     0.069250000000     0          
T        Si     0.708300000000     0.956466666667     0.167700000000     0          
T        Si     0.766666666667     0.928533333333     0.445450000000     0          
T        Si     0.792700000000     0.956266666667     0.007200000000     0          
T        Si     0.959600000000     0.710933333333     0.097950000000     0          
T        Si     0.894766666667     0.750100000000     0.069250000000     0          
T        Si     0.958366666667     0.710200000000     0.167700000000     0          
T        Si     0.900000000000     0.738133333333     0.445450000000     0          
T        Si     0.873966666667     0.710400000000     0.007200000000     0          
T        Si     0.833333333333     0.789433333333     0.929900000000     0          
T        Si     0.959600000000     0.789066666667     0.847950000000     0          
T        Si     0.894766666667     0.749900000000     0.819250000000     0          
T        Si     0.833333333333     0.789433333333     0.856650000000     0          
T        Si     0.958366666667     0.789800000000     0.917700000000     0          
T        Si     0.900000000000     0.761866666667     0.695450000000     0          
T        Si     0.873966666667     0.789600000000     0.757200000000     0          
T        Si     0.874066666667     0.833333333333     0.585400000000     0          
T        Si     0.874100000000     0.833333333333     0.658700000000     0          
T        Si     0.833333333333     0.877233333333     0.929900000000     0          
T        Si     0.707066666667     0.877600000000     0.847950000000     0          
T        Si     0.771900000000     0.916766666667     0.819250000000     0          
T        Si     0.833333333333     0.877233333333     0.856650000000     0          
T        Si     0.708300000000     0.876866666667     0.917700000000     0          
T        Si     0.766666666667     0.904800000000     0.695450000000     0          
T        Si     0.792700000000     0.877066666667     0.757200000000     0          
T        Si     0.792600000000     0.833333333333     0.585400000000     0          
T        Si     0.792566666667     0.833333333333     0.658700000000     0          
T        Si     0.707066666667     0.789066666667     0.847950000000     0          
T        Si     0.771900000000     0.749900000000     0.819250000000     0          
T        Si     0.708300000000     0.789800000000     0.917700000000     0          
T        Si     0.766666666667     0.761866666667     0.695450000000     0          
T        Si     0.792700000000     0.789600000000     0.757200000000     0          
T        Si     0.959600000000     0.877600000000     0.847950000000     0          
T        Si     0.894766666667     0.916766666667     0.819250000000     0          
T        Si     0.958366666667     0.876866666667     0.917700000000     0          
T        Si     0.900000000000     0.904800000000     0.695450000000     0          
T        Si     0.873966666667     0.877066666667     0.757200000000     0          
T        Si     0.833333333333     0.956100000000     0.679900000000     0          
T        Si     0.959600000000     0.955733333333     0.597950000000     0          
T        Si     0.894766666667     0.916566666667     0.569250000000     0          
T        Si     0.833333333333     0.956100000000     0.606650000000     0          
T        Si     0.958366666667     0.956466666667     0.667700000000     0          
T        Si     0.900000000000     0.928533333333     0.945450000000     0          
T        Si     0.873966666667     0.956266666667     0.507200000000     0          
T        Si     0.874066666667     0.666666666667     0.835400000000     0          
T        Si     0.874100000000     0.666666666667     0.908700000000     0          
T        Si     0.833333333333     0.710566666667     0.679900000000     0          
T        Si     0.707066666667     0.710933333333     0.597950000000     0          
T        Si     0.771900000000     0.750100000000     0.569250000000     0          
T        Si     0.833333333333     0.710566666667     0.606650000000     0          
T        Si     0.708300000000     0.710200000000     0.667700000000     0          
T        Si     0.766666666667     0.738133333333     0.945450000000     0          
T        Si     0.792700000000     0.710400000000     0.507200000000     0          
T        Si     0.792600000000     0.666666666667     0.835400000000     0          
T        Si     0.792566666667     0.666666666667     0.908700000000     0          
T        Si     0.707066666667     0.955733333333     0.597950000000     0          
T        Si     0.771900000000     0.916566666667     0.569250000000     0          
T        Si     0.708300000000     0.956466666667     0.667700000000     0          
T        Si     0.766666666667     0.928533333333     0.945450000000     0          
T        Si     0.792700000000     0.956266666667     0.507200000000     0          
T        Si     0.959600000000     0.710933333333     0.597950000000     0          
T        Si     0.894766666667     0.750100000000     0.569250000000     0          
T        Si     0.958366666667     0.710200000000     0.667700000000     0          
T        Si     0.900000000000     0.738133333333     0.945450000000     0          
T        Si     0.873966666667     0.710400000000     0.507200000000     0          
O        O      0.227366666667     0.129066666667     0.171150000000     0          
O        O      0.213400000000     0.166666666667     0.267450000000     0          
O        O      0.233500000000     0.112900000000     0.229300000000     0          
O        O      0.201633333333     0.101700000000     0.344000000000     0          
O        O      0.284366666667     0.166666666667     0.427900000000     0          
O        O      0.000000000000     0.113833333333     0.420850000000     0          
O        O      0.215833333333     0.095000000000     0.285400000000     0          
O        O      0.267933333333     0.097833333333     0.325550000000     0          
O        O      0.227133333333     0.037433333333     0.322450000000     0          
O        O      0.279800000000     0.117733333333     0.382700000000     0          
O        O      0.166666666667     0.117300000000     0.246850000000     0          
O        O      0.269933333333     0.073033333333     0.188800000000     0          
O        O      0.166666666667     0.166666666667     0.440850000000     0          
O        O      0.000000000000     0.107866666667     0.345100000000     0          
O        O      0.131866666667     0.101900000000     0.443100000000     0          
O        O      0.208966666667     0.166666666667     0.122050000000     0          
O        O      0.166666666667     0.166666666667     0.345650000000     0          
O        O      0.166666666667     0.120900000000     0.393250000000     0          
O        O      0.290866666667     0.166666666667     0.338100000000     0          
O        O      0.166666666667     0.166666666667     0.074350000000     0          
O        O      0.166666666667     0.166666666667     0.169700000000     0          
O        O      0.105966666667     0.204266666667     0.171150000000     0          
O        O      0.119933333333     0.166666666667     0.267450000000     0          
O        O      0.099833333333     0.220433333333     0.229300000000     0          
O        O      0.131700000000     0.231633333333     0.344000000000     0          
O        O      0.048966666667     0.166666666667     0.427900000000     0          
O        O      0.000000000000     0.219500000000     0.420850000000     0          
O        O      0.117500000000     0.238333333333     0.285400000000     0          
O        O      0.065400000000     0.235500000000     0.325550000000     0          
O        O      0.106200000000     0.295900000000     0.322450000000     0          
O        O      0.053533333333     0.215600000000     0.382700000000     0          
O        O      0.166666666667     0.216033333333     0.246850000000     0          
O        O      0.063400000000     0.260300000000     0.188800000000     0          
O        O      0.000000000000     0.225466666667     0.345100000000     0          
O        O      0.201466666667     0.231433333333     0.443100000000     0          
O        O      0.124366666667     0.166666666667     0.122050000000     0          
O        O      0.166666666667     0.212433333333     0.393250000000     0          
O        O      0.042466666667     0.166666666667     0.338100000000     0          
O        O      0.105966666667     0.129066666667     0.171150000000     0          
O        O      0.099833333333     0.112900000000     0.229300000000     0          
O        O      0.131700000000     0.101700000000     0.344000000000     0          
O        O      0.117500000000     0.095000000000     0.285400000000     0          
O        O      0.065400000000     0.097833333333     0.325550000000     0          
O        O      0.106200000000     0.037433333333     0.322450000000     0          
O        O      0.053533333333     0.117733333333     0.382700000000     0          
O        O      0.063400000000     0.073033333333     0.188800000000     0          
O        O      0.201466666667     0.101900000000     0.443100000000     0          
O        O      0.227366666667     0.204266666667     0.171150000000     0          
O        O      0.233500000000     0.220433333333     0.229300000000     0          
O        O      0.201633333333     0.231633333333     0.344000000000     0          
O        O      0.215833333333     0.238333333333     0.285400000000     0          
O        O      0.267933333333     0.235500000000     0.325550000000     0          
O        O      0.227133333333     0.295900000000     0.322450000000     0          
O        O      0.279800000000     0.215600000000     0.382700000000     0          
O        O      0.269933333333     0.260300000000     0.188800000000     0          
O        O      0.131866666667     0.231433333333     0.443100000000     0          
O        O      0.227366666667     0.295733333333     0.421150000000     0          
O        O      0.213400000000     0.000000000000     0.017450000000     0          
O        O      0.233500000000     0.279566666667     0.479300000000     0          
O        O      0.201633333333     0.268366666667     0.094000000000     0          
O        O      0.284366666667     0.000000000000     0.177900000000     0          
O        O      0.000000000000     0.280500000000     0.170850000000     0          
O        O      0.215833333333     0.261666666667     0.035400000000     0          
O        O      0.267933333333     0.264500000000     0.075550000000     0          
O        O      0.227133333333     0.204100000000     0.072450000000     0          
O        O      0.279800000000     0.284400000000     0.132700000000     0          
O        O      0.166666666667     0.283966666667     0.496850000000     0          
O        O      0.269933333333     0.239700000000     0.438800000000     0          
O        O      0.166666666667     0.000000000000     0.190850000000     0          
O        O      0.000000000000     0.274533333333     0.095100000000     0          
O        O      0.131866666667     0.268566666667     0.193100000000     0          
O        O      0.208966666667     0.000000000000     0.372050000000     0          
O        O      0.166666666667     0.000000000000     0.095650000000     0          
O        O      0.166666666667     0.287566666667     0.143250000000     0          
O        O      0.290866666667     0.000000000000     0.088100000000     0          
O        O      0.166666666667     0.000000000000     0.324350000000     0          
O        O      0.166666666667     0.000000000000     0.419700000000     0          
O        O      0.105966666667     0.037600000000     0.421150000000     0          
O        O      0.119933333333     0.000000000000     0.017450000000     0          
O        O      0.099833333333     0.053766666667     0.479300000000     0          
O        O      0.131700000000     0.064966666667     0.094000000000     0          
O        O      0.048966666667     0.000000000000     0.177900000000     0          
O        O      0.000000000000     0.052833333333     0.170850000000     0          
O        O      0.117500000000     0.071666666667     0.035400000000     0          
O        O      0.065400000000     0.068833333333     0.075550000000     0          
O        O      0.106200000000     0.129233333333     0.072450000000     0          
O        O      0.053533333333     0.048933333333     0.132700000000     0          
O        O      0.166666666667     0.049366666667     0.496850000000     0          
O        O      0.063400000000     0.093633333333     0.438800000000     0          
O        O      0.000000000000     0.058800000000     0.095100000000     0          
O        O      0.201466666667     0.064766666667     0.193100000000     0          
O        O      0.124366666667     0.000000000000     0.372050000000     0          
O        O      0.166666666667     0.045766666667     0.143250000000     0          
O        O      0.042466666667     0.000000000000     0.088100000000     0          
O        O      0.105966666667     0.295733333333     0.421150000000     0          
O        O      0.099833333333     0.279566666667     0.479300000000     0          
O        O      0.131700000000     0.268366666667     0.094000000000     0          
O        O      0.117500000000     0.261666666667     0.035400000000     0          
O        O      0.065400000000     0.264500000000     0.075550000000     0          
O        O      0.106200000000     0.204100000000     0.072450000000     0          
O        O      0.053533333333     0.284400000000     0.132700000000     0          
O        O      0.063400000000     0.239700000000     0.438800000000     0          
O        O      0.201466666667     0.268566666667     0.193100000000     0          
O        O      0.227366666667     0.037600000000     0.421150000000     0          
O        O      0.233500000000     0.053766666667     0.479300000000     0          
O        O      0.201633333333     0.064966666667     0.094000000000     0          
O        O      0.215833333333     0.071666666667     0.035400000000     0          
O        O      0.267933333333     0.068833333333     0.075550000000     0          
O        O      0.227133333333     0.129233333333     0.072450000000     0          
O        O      0.279800000000     0.048933333333     0.132700000000     0          
O        O      0.269933333333     0.093633333333     0.438800000000     0          
O        O      0.131866666667     0.064766666667     0.193100000000     0          
O        O      0.227366666667     0.129066666667     0.671150000000     0          
O        O      0.213400000000     0.166666666667     0.767450000000     0          
O        O      0.233500000000     0.112900000000     0.729300000000     0          
O        O      0.201633333333     0.101700000000     0.844000000000     0          
O        O      0.284366666667     0.166666666667     0.927900000000     0          
O        O      0.000000000000     0.113833333333     0.920850000000     0          
O        O      0.215833333333     0.095000000000     0.785400000000     0          
O        O      0.267933333333     0.097833333333     0.825550000000     0          
O        O      0.227133333333     0.037433333333     0.822450000000     0          
O        O      0.279800000000     0.117733333333     0.882700000000     0          
O        O      0.166666666667     0.117300000000     0.746850000000     0          
O        O      0.269933333333     0.073033333333     0.688800000000     0          
O        O      0.166666666667     0.166666666667     0.940850000000     0          
O        O      0.000000000000     0.107866666667     0.845100000000     0          
O        O      0.131866666667     0.101900000000     0.943100000000     0          
O        O      0.208966666667     0.166666666667     0.622050000000     0          
O        O      0.166666666667     0.166666666667     0.845650000000     0          
O        O      0.166666666667     0.120900000000     0.893250000000     0          
O        O      0.290866666667     0.166666666667     0.838100000000     0          
O        O      0.166666666667     0.166666666667     0.574350000000     0          
O        O      0.166666666667     0.166666666667     0.669700000000     0          
O        O      0.105966666667     0.204266666667     0.671150000000     0          
O        O      0.119933333333     0.166666666667     0.767450000000     0          
O        O      0.099833333333     0.220433333333     0.729300000000     0          
O        O      0.131700000000     0.231633333333     0.844000000000     0          
O        O      0.048966666667     0.166666666667     0.927900000000     0          
O        O      0.000000000000     0.219500000000     0.920850000000     0          
O        O      0.117500000000     0.238333333333     0.785400000000     0          
O        O      0.065400000000     0.235500000000     0.825550000000     0          
O        O      0.106200000000     0.295900000000     0.822450000000     0          
O        O      0.053533333333     0.215600000000     0.882700000000     0          
O        O      0.166666666667     0.216033333333     0.746850000000     0          
O        O      0.063400000000     0.260300000000     0.688800000000     0          
O        O      0.000000000000     0.225466666667     0.845100000000     0          
O        O      0.201466666667     0.231433333333     0.943100000000     0          
O        O      0.124366666667     0.166666666667     0.622050000000     0          
O        O      0.166666666667     0.212433333333     0.893250000000     0          
O        O      0.042466666667     0.166666666667     0.838100000000     0          
O        O      0.105966666667     0.129066666667     0.671150000000     0          
O        O      0.099833333333     0.112900000000     0.729300000000     0          
O        O      0.131700000000     0.101700000000     0.844000000000     0          
O        O      0.117500000000     0.095000000000     0.785400000000     0          
O        O      0.065400000000     0.097833333333     0.825550000000     0          
O        O      0.106200000000     0.037433333333     0.822450000000     0          
O        O      0.053533333333     0.117733333333     0.882700000000     0          
O        O      0.063400000000     0.073033333333     0.688800000000     0          
O        O      0.201466666667     0.101900000000     0.943100000000     0          
O        O      0.227366666667     0.204266666667     0.671150000000     0          
O        O      0.233500000000     0.220433333333     0.729300000000     0          
O        O      0.201633333333     0.231633333333     0.844000000000     0          
O        O      0.215833333333     0.238333333333     0.785400000000     0          
O        O      0.267933333333     0.235500000000     0.825550000000     0          
O        O      0.227133333333     0.295900000000     0.822450000000     0          
O        O      0.279800000000     0.215600000000     0.882700000000     0          
O        O      0.269933333333     0.260300000000     0.688800000000     0          
O        O      0.131866666667     0.231433333333     0.943100000000     0          
O        O      0.227366666667     0.295733333333     0.921150000000     0          
O        O      0.213400000000     0.000000000000     0.517450000000     0          
O        O      0.233500000000     0.279566666667     0.979300000000     0          
O        O      0.201633333333     0.268366666667     0.594000000000     0          
O        O      0.284366666667     0.000000000000     0.677900000000     0          
O        O      0.000000000000     0.280500000000     0.670850000000     0          
O        O      0.215833333333     0.261666666667     0.535400000000     0          
O        O      0.267933333333     0.264500000000     0.575550000000     0          
O        O      0.227133333333     0.204100000000     0.572450000000     0          
O        O      0.279800000000     0.284400000000     0.632700000000     0          
O        O      0.166666666667     0.283966666667     0.996850000000     0          
O        O      0.269933333333     0.239700000000     0.938800000000     0          
O        O      0.166666666667     0.000000000000     0.690850000000     0          
O        O      0.000000000000     0.274533333333     0.595100000000     0          
O        O      0.131866666667     0.268566666667     0.693100000000     0          
O        O      0.208966666667     0.000000000000     0.872050000000     0          
O        O      0.166666666667     0.000000000000     0.595650000000     0          
O        O      0.166666666667     0.287566666667     0.643250000000     0          
O        O      0.290866666667     0.000000000000     0.588100000000     0          
O        O      0.166666666667     0.000000000000     0.824350000000     0          
O        O      0.166666666667     0.000000000000     0.919700000000     0          
O        O      0.105966666667     0.037600000000     0.921150000000     0          
O        O      0.119933333333     0.000000000000     0.517450000000     0          
O        O      0.099833333333     0.053766666667     0.979300000000     0          
O        O      0.131700000000     0.064966666667     0.594000000000     0          
O        O      0.048966666667     0.000000000000     0.677900000000     0          
O        O      0.000000000000     0.052833333333     0.670850000000     0          
O        O      0.117500000000     0.071666666667     0.535400000000     0          
O        O      0.065400000000     0.068833333333     0.575550000000     0          
O        O      0.106200000000     0.129233333333     0.572450000000     0          
O        O      0.053533333333     0.048933333333     0.632700000000     0          
O        O      0.166666666667     0.049366666667     0.996850000000     0          
O        O      0.063400000000     0.093633333333     0.938800000000     0          
O        O      0.000000000000     0.058800000000     0.595100000000     0          
O        O      0.201466666667     0.064766666667     0.693100000000     0          
O        O      0.124366666667     0.000000000000     0.872050000000     0          
O        O      0.166666666667     0.045766666667     0.643250000000     0          
O        O      0.042466666667     0.000000000000     0.588100000000     0          
O        O      0.105966666667     0.295733333333     0.921150000000     0          
O        O      0.099833333333     0.279566666667     0.979300000000     0          
O        O      0.131700000000     0.268366666667     0.594000000000     0          
O        O      0.117500000000     0.261666666667     0.535400000000     0          
O        O      0.065400000000     0.264500000000     0.575550000000     0          
O        O      0.106200000000     0.204100000000     0.572450000000     0          
O        O      0.053533333333     0.284400000000     0.632700000000     0          
O        O      0.063400000000     0.239700000000     0.938800000000     0          
O        O      0.201466666667     0.268566666667     0.693100000000     0          
O        O      0.227366666667     0.037600000000     0.921150000000     0          
O        O      0.233500000000     0.053766666667     0.979300000000     0          
O        O      0.201633333333     0.064966666667     0.594000000000     0          
O        O      0.215833333333     0.071666666667     0.535400000000     0          
O        O      0.267933333333     0.068833333333     0.575550000000     0          
O        O      0.227133333333     0.129233333333     0.572450000000     0          
O        O      0.279800000000     0.048933333333     0.632700000000     0          
O        O      0.269933333333     0.093633333333     0.938800000000     0          
O        O      0.131866666667     0.064766666667     0.693100000000     0          
O        O      0.227366666667     0.462400000000     0.171150000000     0          
O        O      0.213400000000     0.500000000000     0.267450000000     0          
O        O      0.233500000000     0.446233333333     0.229300000000     0          
O        O      0.201633333333     0.435033333333     0.344000000000     0          
O        O      0.284366666667     0.500000000000     0.427900000000     0          
O        O      0.000000000000     0.447166666667     0.420850000000     0          
O        O      0.215833333333     0.428333333333     0.285400000000     0          
O        O      0.267933333333     0.431166666667     0.325550000000     0          
O        O      0.227133333333     0.370766666667     0.322450000000     0          
O        O      0.279800000000     0.451066666667     0.382700000000     0          
O        O      0.166666666667     0.450633333333     0.246850000000     0          
O        O      0.269933333333     0.406366666667     0.188800000000     0          
O        O      0.166666666667     0.500000000000     0.440850000000     0          
O        O      0.000000000000     0.441200000000     0.345100000000     0          
O        O      0.131866666667     0.435233333333     0.443100000000     0          
O        O      0.208966666667     0.500000000000     0.122050000000     0          
O        O      0.166666666667     0.500000000000     0.345650000000     0          
O        O      0.166666666667     0.454233333333     0.393250000000     0          
O        O      0.290866666667     0.500000000000     0.338100000000     0          
O        O      0.166666666667     0.500000000000     0.074350000000     0          
O        O      0.166666666667     0.500000000000     0.169700000000     0          
O        O      0.105966666667     0.537600000000     0.171150000000     0          
O        O      0.119933333333     0.500000000000     0.267450000000     0          
O        O      0.099833333333     0.553766666667     0.229300000000     0          
O        O      0.131700000000     0.564966666667     0.344000000000     0          
O        O      0.048966666667     0.500000000000     0.427900000000     0          
O        O      0.000000000000     0.552833333333     0.420850000000     0          
O        O      0.117500000000     0.571666666667     0.285400000000     0          
O        O      0.065400000000     0.568833333333     0.325550000000     0          
O        O      0.106200000000     0.629233333333     0.322450000000     0          
O        O      0.053533333333     0.548933333333     0.382700000000     0          
O        O      0.166666666667     0.549366666667     0.246850000000     0          
O        O      0.063400000000     0.593633333333     0.188800000000     0          
O        O      0.000000000000     0.558800000000     0.345100000000     0          
O        O      0.201466666667     0.564766666667     0.443100000000     0          
O        O      0.124366666667     0.500000000000     0.122050000000     0          
O        O      0.166666666667     0.545766666667     0.393250000000     0          
O        O      0.042466666667     0.500000000000     0.338100000000     0          
O        O      0.105966666667     0.462400000000     0.171150000000     0          
O        O      0.099833333333     0.446233333333     0.229300000000     0          
O        O      0.131700000000     0.435033333333     0.344000000000     0          
O        O      0.117500000000     0.428333333333     0.285400000000     0          
O        O      0.065400000000     0.431166666667     0.325550000000     0          
O        O      0.106200000000     0.370766666667     0.322450000000     0          
O        O      0.053533333333     0.451066666667     0.382700000000     0          
O        O      0.063400000000     0.406366666667     0.188800000000     0          
O        O      0.201466666667     0.435233333333     0.443100000000     0          
O        O      0.227366666667     0.537600000000     0.171150000000     0          
O        O      0.233500000000     0.553766666667     0.229300000000     0          
O        O      0.201633333333     0.564966666667     0.344000000000     0          
O        O      0.215833333333     0.571666666667     0.285400000000     0          
O        O      0.267933333333     0.568833333333     0.325550000000     0          
O        O      0.227133333333     0.629233333333     0.322450000000     0          
O        O      0.279800000000     0.548933333333     0.382700000000     0          
O        O      0.269933333333     0.593633333333     0.188800000000     0          
O        O      0.131866666667     0.564766666667     0.443100000000     0          
O        O      0.227366666667     0.629066666667     0.421150000000     0          
O        O      0.213400000000     0.333333333333     0.017450000000     0          
O        O      0.233500000000     0.612900000000     0.479300000000     0          
O        O      0.201633333333     0.601700000000     0.094000000000     0          
O        O      0.284366666667     0.333333333333     0.177900000000     0          
O        O      0.000000000000     0.613833333333     0.170850000000     0          
O        O      0.215833333333     0.595000000000     0.035400000000     0          
O        O      0.267933333333     0.597833333333     0.075550000000     0          
O        O      0.227133333333     0.537433333333     0.072450000000     0          
O        O      0.279800000000     0.617733333333     0.132700000000     0          
O        O      0.166666666667     0.617300000000     0.496850000000     0          
O        O      0.269933333333     0.573033333333     0.438800000000     0          
O        O      0.166666666667     0.333333333333     0.190850000000     0          
O        O      0.000000000000     0.607866666667     0.095100000000     0          
O        O      0.131866666667     0.601900000000     0.193100000000     0          
O        O      0.208966666667     0.333333333333     0.372050000000     0          
O        O      0.166666666667     0.333333333333     0.095650000000     0          
O        O      0.166666666667     0.620900000000     0.143250000000     0          
O        O      0.290866666667     0.333333333333     0.088100000000     0          
O        O      0.166666666667     0.333333333333     0.324350000000     0          
O        O      0.166666666667     0.333333333333     0.419700000000     0          
O        O      0.105966666667     0.370933333333     0.421150000000     0          
O        O      0.119933333333     0.333333333333     0.017450000000     0          
O        O      0.099833333333     0.387100000000     0.479300000000     0          
O        O      0.131700000000     0.398300000000     0.094000000000     0          
O        O      0.048966666667     0.333333333333     0.177900000000     0          
O        O      0.000000000000     0.386166666667     0.170850000000     0          
O        O      0.117500000000     0.405000000000     0.035400000000     0          
O        O      0.065400000000     0.402166666667     0.075550000000     0          
O        O      0.106200000000     0.462566666667     0.072450000000     0          
O        O      0.053533333333     0.382266666667     0.132700000000     0          
O        O      0.166666666667     0.382700000000     0.496850000000     0          
O        O      0.063400000000     0.426966666667     0.438800000000     0          
O        O      0.000000000000     0.392133333333     0.095100000000     0          
O        O      0.201466666667     0.398100000000     0.193100000000     0          
O        O      0.124366666667     0.333333333333     0.372050000000     0          
O        O      0.166666666667     0.379100000000     0.143250000000     0          
O        O      0.042466666667     0.333333333333     0.088100000000     0          
O        O      0.105966666667     0.629066666667     0.421150000000     0          
O        O      0.099833333333     0.612900000000     0.479300000000     0          
O        O      0.131700000000     0.601700000000     0.094000000000     0          
O        O      0.117500000000     0.595000000000     0.035400000000     0          
O        O      0.065400000000     0.597833333333     0.075550000000     0          
O        O      0.106200000000     0.537433333333     0.072450000000     0          
O        O      0.053533333333     0.617733333333     0.132700000000     0          
O        O      0.063400000000     0.573033333333     0.438800000000     0          
O        O      0.201466666667     0.601900000000     0.193100000000     0          
O        O      0.227366666667     0.370933333333     0.421150000000     0          
O        O      0.233500000000     0.387100000000     0.479300000000     0          
O        O      0.201633333333     0.398300000000     0.094000000000     0          
O        O      0.215833333333     0.405000000000     0.035400000000     0          
O        O      0.267933333333     0.402166666667     0.075550000000     0          
O        O      0.227133333333     0.462566666667     0.072450000000     0          
O        O      0.279800000000     0.382266666667     0.132700000000     0          
O        O      0.269933333333     0.426966666667     0.438800000000     0          
O        O      0.131866666667     0.398100000000     0.193100000000     0          
O        O      0.227366666667     0.462400000000     0.671150000000     0          
O        O      0.213400000000     0.500000000000     0.767450000000     0          
O        O      0.233500000000     0.446233333333     0.729300000000     0          
O        O      0.201633333333     0.435033333333     0.844000000000     0          
O        O      0.284366666667     0.500000000000     0.927900000000     0          
O        O      0.000000000000     0.447166666667     0.920850000000     0          
O        O      0.215833333333     0.428333333333     0.785400000000     0          
O        O      0.267933333333     0.431166666667     0.825550000000     0          
O        O      0.227133333333     0.370766666667     0.822450000000     0          
O        O      0.279800000000     0.451066666667     0.882700000000     0          
O        O      0.166666666667     0.450633333333     0.746850000000     0          
O        O      0.269933333333     0.406366666667     0.688800000000     0          
O        O      0.166666666667     0.500000000000     0.940850000000     0          
O        O      0.000000000000     0.441200000000     0.845100000000     0          
O        O      0.131866666667     0.435233333333     0.943100000000     0          
O        O      0.208966666667     0.500000000000     0.622050000000     0          
O        O      0.166666666667     0.500000000000     0.845650000000     0          
O        O      0.166666666667     0.454233333333     0.893250000000     0          
O        O      0.290866666667     0.500000000000     0.838100000000     0          
O        O      0.166666666667     0.500000000000     0.574350000000     0          
O        O      0.166666666667     0.500000000000     0.669700000000     0          
O        O      0.105966666667     0.537600000000     0.671150000000     0          
O        O      0.119933333333     0.500000000000     0.767450000000     0          
O        O      0.099833333333     0.553766666667     0.729300000000     0          
O        O      0.131700000000     0.564966666667     0.844000000000     0          
O        O      0.048966666667     0.500000000000     0.927900000000     0          
O        O      0.000000000000     0.552833333333     0.920850000000     0          
O        O      0.117500000000     0.571666666667     0.785400000000     0          
O        O      0.065400000000     0.568833333333     0.825550000000     0          
O        O      0.106200000000     0.629233333333     0.822450000000     0          
O        O      0.053533333333     0.548933333333     0.882700000000     0          
O        O      0.166666666667     0.549366666667     0.746850000000     0          
O        O      0.063400000000     0.593633333333     0.688800000000     0          
O        O      0.000000000000     0.558800000000     0.845100000000     0          
O        O      0.201466666667     0.564766666667     0.943100000000     0          
O        O      0.124366666667     0.500000000000     0.622050000000     0          
O        O      0.166666666667     0.545766666667     0.893250000000     0          
O        O      0.042466666667     0.500000000000     0.838100000000     0          
O        O      0.105966666667     0.462400000000     0.671150000000     0          
O        O      0.099833333333     0.446233333333     0.729300000000     0          
O        O      0.131700000000     0.435033333333     0.844000000000     0          
O        O      0.117500000000     0.428333333333     0.785400000000     0          
O        O      0.065400000000     0.431166666667     0.825550000000     0          
O        O      0.106200000000     0.370766666667     0.822450000000     0          
O        O      0.053533333333     0.451066666667     0.882700000000     0          
O        O      0.063400000000     0.406366666667     0.688800000000     0          
O        O      0.201466666667     0.435233333333     0.943100000000     0          
O        O      0.227366666667     0.537600000000     0.671150000000     0          
O        O      0.233500000000     0.553766666667     0.729300000000     0          
O        O      0.201633333333     0.564966666667     0.844000000000     0          
O        O      0.215833333333     0.571666666667     0.785400000000     0          
O        O      0.267933333333     0.568833333333     0.825550000000     0          
O        O      0.227133333333     0.629233333333     0.822450000000     0          
O        O      0.279800000000     0.548933333333     0.882700000000     0          
O        O      0.269933333333     0.593633333333     0.688800000000     0          
O        O      0.131866666667     0.564766666667     0.943100000000     0          
O        O      0.227366666667     0.629066666667     0.921150000000     0          
O        O      0.213400000000     0.333333333333     0.517450000000     0          
O        O      0.233500000000     0.612900000000     0.979300000000     0          
O        O      0.201633333333     0.601700000000     0.594000000000     0          
O        O      0.284366666667     0.333333333333     0.677900000000     0          
O        O      0.000000000000     0.613833333333     0.670850000000     0          
O        O      0.215833333333     0.595000000000     0.535400000000     0          
O        O      0.267933333333     0.597833333333     0.575550000000     0          
O        O      0.227133333333     0.537433333333     0.572450000000     0          
O        O      0.279800000000     0.617733333333     0.632700000000     0          
O        O      0.166666666667     0.617300000000     0.996850000000     0          
O        O      0.269933333333     0.573033333333     0.938800000000     0          
O        O      0.166666666667     0.333333333333     0.690850000000     0          
O        O      0.000000000000     0.607866666667     0.595100000000     0          
O        O      0.131866666667     0.601900000000     0.693100000000     0          
O        O      0.208966666667     0.333333333333     0.872050000000     0          
O        O      0.166666666667     0.333333333333     0.595650000000     0          
O        O      0.166666666667     0.620900000000     0.643250000000     0          
O        O      0.290866666667     0.333333333333     0.588100000000     0          
O        O      0.166666666667     0.333333333333     0.824350000000     0          
O        O      0.166666666667     0.333333333333     0.919700000000     0          
O        O      0.105966666667     0.370933333333     0.921150000000     0          
O        O      0.119933333333     0.333333333333     0.517450000000     0          
O        O      0.099833333333     0.387100000000     0.979300000000     0          
O        O      0.131700000000     0.398300000000     0.594000000000     0          
O        O      0.048966666667     0.333333333333     0.677900000000     0          
O        O      0.000000000000     0.386166666667     0.670850000000     0          
O        O      0.117500000000     0.405000000000     0.535400000000     0          
O        O      0.065400000000     0.402166666667     0.575550000000     0          
O        O      0.106200000000     0.462566666667     0.572450000000     0          
O        O      0.053533333333     0.382266666667     0.632700000000     0          
O        O      0.166666666667     0.382700000000     0.996850000000     0          
O        O      0.063400000000     0.426966666667     0.938800000000     0          
O        O      0.000000000000     0.392133333333     0.595100000000     0          
O        O      0.201466666667     0.398100000000     0.693100000000     0          
O        O      0.124366666667     0.333333333333     0.872050000000     0          
O        O      0.166666666667     0.379100000000     0.643250000000     0          
O        O      0.042466666667     0.333333333333     0.588100000000     0          
O        O      0.105966666667     0.629066666667     0.921150000000     0          
O        O      0.099833333333     0.612900000000     0.979300000000     0          
O        O      0.131700000000     0.601700000000     0.594000000000     0          
O        O      0.117500000000     0.595000000000     0.535400000000     0          
O        O      0.065400000000     0.597833333333     0.575550000000     0          
O        O      0.106200000000     0.537433333333     0.572450000000     0          
O        O      0.053533333333     0.617733333333     0.632700000000     0          
O        O      0.063400000000     0.573033333333     0.938800000000     0          
O        O      0.201466666667     0.601900000000     0.693100000000     0          
O        O      0.227366666667     0.370933333333     0.921150000000     0          
O        O      0.233500000000     0.387100000000     0.979300000000     0          
O        O      0.201633333333     0.398300000000     0.594000000000     0          
O        O      0.215833333333     0.405000000000     0.535400000000     0          
O        O      0.267933333333     0.402166666667     0.575550000000     0          
O        O      0.227133333333     0.462566666667     0.572450000000     0          
O        O      0.279800000000     0.382266666667     0.632700000000     0          
O        O      0.269933333333     0.426966666667     0.938800000000     0          
O        O      0.131866666667     0.398100000000     0.693100000000     0          
O        O      0.227366666667     0.795733333333     0.171150000000     0          
O        O      0.213400000000     0.833333333333     0.267450000000     0          
O        O      0.233500000000     0.779566666667     0.229300000000     0          
O        O      0.201633333333     0.768366666667     0.344000000000     0          
O        O      0.284366666667     0.833333333333     0.427900000000     0          
O        O      0.000000000000     0.780500000000     0.420850000000     0          
O        O      0.215833333333     0.761666666667     0.285400000000     0          
O        O      0.267933333333     0.764500000000     0.325550000000     0          
O        O      0.227133333333     0.704100000000     0.322450000000     0          
O        O      0.279800000000     0.784400000000     0.382700000000     0          
O        O      0.166666666667     0.783966666667     0.246850000000     0          
O        O      0.269933333333     0.739700000000     0.188800000000     0          
O        O      0.166666666667     0.833333333333     0.440850000000     0          
O        O      0.000000000000     0.774533333333     0.345100000000     0          
O        O      0.131866666667     0.768566666667     0.443100000000     0          
O        O      0.208966666667     0.833333333333     0.122050000000     0          
O        O      0.166666666667     0.833333333333     0.345650000000     0          
O        O      0.166666666667     0.787566666667     0.393250000000     0          
O        O      0.290866666667     0.833333333333     0.338100000000     0          
O        O      0.166666666667     0.833333333333     0.074350000000     0          
O        O      0.166666666667     0.833333333333     0.169700000000     0          
O        O      0.105966666667     0.870933333333     0.171150000000     0          
O        O      0.119933333333     0.833333333333     0.267450000000     0          
O        O      0.099833333333     0.887100000000     0.229300000000     0          
O        O      0.131700000000     0.898300000000     0.344000000000     0          
O        O      0.048966666667     0.833333333333     0.427900000000     0          
O        O      0.000000000000     0.886166666667     0.420850000000     0          
O        O      0.117500000000     0.905000000000     0.285400000000     0          
O        O      0.065400000000     0.902166666667     0.325550000000     0          
O        O      0.106200000000     0.962566666667     0.322450000000     0          
O        O      0.053533333333     0.882266666667     0.382700000000     0          
O        O      0.166666666667     0.882700000000     0.246850000000     0          
O        O      0.063400000000     0.926966666667     0.188800000000     0          
O        O      0.000000000000     0.892133333333     0.345100000000     0          
O        O      0.201466666667     0.898100000000     0.443100000000     0          
O        O      0.124366666667     0.833333333333     0.122050000000     0          
O        O      0.166666666667     0.879100000000     0.393250000000     0          
O        O      0.042466666667     0.833333333333     0.338100000000     0          
O        O      0.105966666667     0.795733333333     0.171150000000     0          
O        O      0.099833333333     0.779566666667     0.229300000000     0          
O        O      0.131700000000     0.768366666667     0.344000000000     0          
O        O      0.117500000000     0.761666666667     0.285400000000     0          
O        O      0.065400000000     0.764500000000     0.325550000000     0          
O        O      0.106200000000     0.704100000000     0.322450000000     0          
O        O      0.053533333333     0.784400000000     0.382700000000     0          
O        O      0.063400000000     0.739700000000     0.188800000000     0          
O        O      0.201466666667     0.768566666667     0.443100000000     0          
O        O      0.227366666667     0.870933333333     0.171150000000     0          
O        O      0.233500000000     0.887100000000     0.229300000000     0          
O        O      0.201633333333     0.898300000000     0.344000000000     0          
O        O      0.215833333333     0.905000000000     0.285400000000     0          
O        O      0.267933333333     0.902166666667     0.325550000000     0          
O        O      0.227133333333     0.962566666667     0.322450000000     0          
O        O      0.279800000000     0.882266666667     0.382700000000     0          
O        O      0.269933333333     0.926966666667     0.188800000000     0          
O        O      0.131866666667     0.898100000000     0.443100000000     0          
O        O      0.227366666667     0.962400000000     0.421150000000     0          
O        O      0.213400000000     0.666666666667     0.017450000000     0          
O        O      0.233500000000     0.946233333333     0.479300000000     0          
O        O      0.201633333333     0.935033333333     0.094000000000     0          
O        O      0.284366666667     0.666666666667     0.177900000000     0          
O        O      0.000000000000     0.947166666667     0.170850000000     0          
O        O      0.215833333333     0.928333333333     0.035400000000     0          
O        O      0.267933333333     0.931166666667     0.075550000000     0          
O        O      0.227133333333     0.870766666667     0.072450000000     0          
O        O      0.279800000000     0.951066666667     0.132700000000     0          
O        O      0.166666666667     0.950633333333     0.496850000000     0          
O        O      0.269933333333     0.906366666667     0.438800000000     0          
O        O      0.166666666667     0.666666666667     0.190850000000     0          
O        O      0.000000000000     0.941200000000     0.095100000000     0          
O        O      0.131866666667     0.935233333333     0.193100000000     0          
O        O      0.208966666667     0.666666666667     0.372050000000     0          
O        O      0.166666666667     0.666666666667     0.095650000000     0          
O        O      0.166666666667     0.954233333333     0.143250000000     0          
O        O      0.290866666667     0.666666666667     0.088100000000     0          
O        O      0.166666666667     0.666666666667     0.324350000000     0          
O        O      0.166666666667     0.666666666667     0.419700000000     0          
O        O      0.105966666667     0.704266666667     0.421150000000     0          
O        O      0.119933333333     0.666666666667     0.017450000000     0          
O        O      0.099833333333     0.720433333333     0.479300000000     0          
O        O      0.131700000000     0.731633333333     0.094000000000     0          
O        O      0.048966666667     0.666666666667     0.177900000000     0          
O        O      0.000000000000     0.719500000000     0.170850000000     0          
O        O      0.117500000000     0.738333333333     0.035400000000     0          
O        O      0.065400000000     0.735500000000     0.075550000000     0          
O        O      0.106200000000     0.795900000000     0.072450000000     0          
O        O      0.053533333333     0.715600000000     0.132700000000     0          
O        O      0.166666666667     0.716033333333     0.496850000000     0          
O        O      0.063400000000     0.760300000000     0.438800000000     0          
O        O      0.000000000000     0.725466666667     0.095100000000     0          
O        O      0.201466666667     0.731433333333     0.193100000000     0          
O        O      0.124366666667     0.666666666667     0.372050000000     0          
O        O      0.166666666667     0.712433333333     0.143250000000     0          
O        O      0.042466666667     0.666666666667     0.088100000000     0          
O        O      0.105966666667     0.962400000000     0.421150000000     0          
O        O      0.099833333333     0.946233333333     0.479300000000     0          
O        O      0.131700000000     0.935033333333     0.094000000000     0          
O        O      0.117500000000     0.928333333333     0.035400000000     0          
O        O      0.065400000000     0.931166666667     0.075550000000     0          
O        O      0.106200000000     0.870766666667     0.072450000000     0          
O        O      0.053533333333     0.951066666667     0.132700000000     0          
O        O      0.063400000000     0.906366666667     0.438800000000     0          
O        O      0.201466666667     0.935233333333     0.193100000000     0          
O        O      0.227366666667     0.704266666667     0.421150000000     0          
O        O      0.233500000000     0.720433333333     0.479300000000     0          
O        O      0.201633333333     0.731633333333     0.094000000000     0          
O        O      0.215833333333     0.738333333333     0.035400000000     0          
O        O      0.267933333333     0.735500000000     0.075550000000     0          
O        O      0.227133333333     0.795900000000     0.072450000000     0          
O        O      0.279800000000     0.715600000000     0.132700000000     0          
O        O      0.269933333333     0.760300000000     0.438800000000     0          
O        O      0.131866666667     0.731433333333     0.193100000000     0          
O        O      0.227366666667     0.795733333333     0.671150000000     0          
O        O      0.213400000000     0.833333333333     0.767450000000     0          
O        O      0.233500000000     0.779566666667     0.729300000000     0          
O        O      0.201633333333     0.768366666667     0.844000000000     0          
O        O      0.284366666667     0.833333333333     0.927900000000     0          
O        O      0.000000000000     0.780500000000     0.920850000000     0          
O        O      0.215833333333     0.761666666667     0.785400000000     0          
O        O      0.267933333333     0.764500000000     0.825550000000     0          
O        O      0.227133333333     0.704100000000     0.822450000000     0          
O        O      0.279800000000     0.784400000000     0.882700000000     0          
O        O      0.166666666667     0.783966666667     0.746850000000     0          
O        O      0.269933333333     0.739700000000     0.688800000000     0          
O        O      0.166666666667     0.833333333333     0.940850000000     0          
O        O      0.000000000000     0.774533333333     0.845100000000     0          
O        O      0.131866666667     0.768566666667     0.943100000000     0          
O        O      0.208966666667     0.833333333333     0.622050000000     0          
O        O      0.166666666667     0.833333333333     0.845650000000     0          
O        O      0.166666666667     0.787566666667     0.893250000000     0          
O        O      0.290866666667     0.833333333333     0.838100000000     0          
O        O      0.166666666667     0.833333333333     0.574350000000     0          
O        O      0.166666666667     0.833333333333     0.669700000000     0          
O        O      0.105966666667     0.870933333333     0.671150000000     0          
O        O      0.119933333333     0.833333333333     0.767450000000     0          
O        O      0.099833333333     0.887100000000     0.729300000000     0          
O        O      0.131700000000     0.898300000000     0.844000000000     0          
O        O      0.048966666667     0.833333333333     0.927900000000     0          
O        O      0.000000000000     0.886166666667     0.920850000000     0          
O        O      0.117500000000     0.905000000000     0.785400000000     0          
O        O      0.065400000000     0.902166666667     0.825550000000     0          
O        O      0.106200000000     0.962566666667     0.822450000000     0          
O        O      0.053533333333     0.882266666667     0.882700000000     0          
O        O      0.166666666667     0.882700000000     0.746850000000     0          
O        O      0.063400000000     0.926966666667     0.688800000000     0          
O        O      0.000000000000     0.892133333333     0.845100000000     0          
O        O      0.201466666667     0.898100000000     0.943100000000     0          
O        O      0.124366666667     0.833333333333     0.622050000000     0          
O        O      0.166666666667     0.879100000000     0.893250000000     0          
O        O      0.042466666667     0.833333333333     0.838100000000     0          
O        O      0.105966666667     0.795733333333     0.671150000000     0          
O        O      0.099833333333     0.779566666667     0.729300000000     0          
O        O      0.131700000000     0.768366666667     0.844000000000     0          
O        O      0.117500000000     0.761666666667     0.785400000000     0          
O        O      0.065400000000     0.764500000000     0.825550000000     0          
O        O      0.106200000000     0.704100000000     0.822450000000     0          
O        O      0.053533333333     0.784400000000     0.882700000000     0          
O        O      0.063400000000     0.739700000000     0.688800000000     0          
O        O      0.201466666667     0.768566666667     0.943100000000     0          
O        O      0.227366666667     0.870933333333     0.671150000000     0          
O        O      0.233500000000     0.887100000000     0.729300000000     0          
O        O      0.201633333333     0.898300000000     0.844000000000     0          
O        O      0.215833333333     0.905000000000     0.785400000000     0          
O        O      0.267933333333     0.902166666667     0.825550000000     0          
O        O      0.227133333333     0.962566666667     0.822450000000     0          
O        O      0.279800000000     0.882266666667     0.882700000000     0          
O        O      0.269933333333     0.926966666667     0.688800000000     0          
O        O      0.131866666667     0.898100000000     0.943100000000     0          
O        O      0.227366666667     0.962400000000     0.921150000000     0          
O        O      0.213400000000     0.666666666667     0.517450000000     0          
O        O      0.233500000000     0.946233333333     0.979300000000     0          
O        O      0.201633333333     0.935033333333     0.594000000000     0          
O        O      0.284366666667     0.666666666667     0.677900000000     0          
O        O      0.000000000000     0.947166666667     0.670850000000     0          
O        O      0.215833333333     0.928333333333     0.535400000000     0          
O        O      0.267933333333     0.931166666667     0.575550000000     0          
O        O      0.227133333333     0.870766666667     0.572450000000     0          
O        O      0.279800000000     0.951066666667     0.632700000000     0          
O        O      0.166666666667     0.950633333333     0.996850000000     0          
O        O      0.269933333333     0.906366666667     0.938800000000     0          
O        O      0.166666666667     0.666666666667     0.690850000000     0          
O        O      0.000000000000     0.941200000000     0.595100000000     0          
O        O      0.131866666667     0.935233333333     0.693100000000     0          
O        O      0.208966666667     0.666666666667     0.872050000000     0          
O        O      0.166666666667     0.666666666667     0.595650000000     0          
O        O      0.166666666667     0.954233333333     0.643250000000     0          
O        O      0.290866666667     0.666666666667     0.588100000000     0          
O        O      0.166666666667     0.666666666667     0.824350000000     0          
O        O      0.166666666667     0.666666666667     0.919700000000     0          
O        O      0.105966666667     0.704266666667     0.921150000000     0          
O        O      0.119933333333     0.666666666667     0.517450000000     0          
O        O      0.099833333333     0.720433333333     0.979300000000     0          
O        O      0.131700000000     0.731633333333     0.594000000000     0          
O        O      0.048966666667     0.666666666667     0.677900000000     0          
O        O      0.000000000000     0.719500000000     0.670850000000     0          
O        O      0.117500000000     0.738333333333     0.535400000000     0          
O        O      0.065400000000     0.735500000000     0.575550000000     0          
O        O      0.106200000000     0.795900000000     0.572450000000     0          
O        O      0.053533333333     0.715600000000     0.632700000000     0          
O        O      0.166666666667     0.716033333333     0.996850000000     0          
O        O      0.063400000000     0.760300000000     0.938800000000     0          
O        O      0.000000000000     0.725466666667     0.595100000000     0          
O        O      0.201466666667     0.731433333333     0.693100000000     0          
O        O      0.124366666667     0.666666666667     0.872050000000     0          
O        O      0.166666666667     0.712433333333     0.643250000000     0          
O        O      0.042466666667     0.666666666667     0.588100000000     0          
O        O      0.105966666667     0.962400000000     0.921150000000     0          
O        O      0.099833333333     0.946233333333     0.979300000000     0          
O        O      0.131700000000     0.935033333333     0.594000000000     0          
O        O      0.117500000000     0.928333333333     0.535400000000     0          
O        O      0.065400000000     0.931166666667     0.575550000000     0          
O        O      0.106200000000     0.870766666667     0.572450000000     0          
O        O      0.053533333333     0.951066666667     0.632700000000     0          
O        O      0.063400000000     0.906366666667     0.938800000000     0          
O        O      0.201466666667     0.935233333333     0.693100000000     0          
O        O      0.227366666667     0.704266666667     0.921150000000     0          
O        O      0.233500000000     0.720433333333     0.979300000000     0          
O        O      0.201633333333     0.731633333333     0.594000000000     0          
O        O      0.215833333333     0.738333333333     0.535400000000     0          
O        O      0.267933333333     0.735500000000     0.575550000000     0          
O        O      0.227133333333     0.795900000000     0.572450000000     0          
O        O      0.279800000000     0.715600000000     0.632700000000     0          
O        O      0.269933333333     0.760300000000     0.938800000000     0          
O        O      0.131866666667     0.731433333333     0.693100000000     0          
O        O      0.560700000000     0.129066666667     0.171150000000     0          
O        O      0.546733333333     0.166666666667     0.267450000000     0          
O        O      0.566833333333     0.112900000000     0.229300000000     0          
O        O      0.534966666667     0.101700000000     0.344000000000     0          
O        O      0.617700000000     0.166666666667     0.427900000000     0          
O        O      0.333333333333     0.113833333333     0.420850000000     0          
O        O      0.549166666667     0.095000000000     0.285400000000     0          
O        O      0.601266666667     0.097833333333     0.325550000000     0          
O        O      0.560466666667     0.037433333333     0.322450000000     0          
O        O      0.613133333333     0.117733333333     0.382700000000     0          
O        O      0.500000000000     0.117300000000     0.246850000000     0          
O        O      0.603266666667     0.073033333333     0.188800000000     0          
O        O      0.500000000000     0.166666666667     0.440850000000     0          
O        O      0.333333333333     0.107866666667     0.345100000000     0          
O        O      0.465200000000     0.101900000000     0.443100000000     0          
O        O      0.542300000000     0.166666666667     0.122050000000     0          
O        O      0.500000000000     0.166666666667     0.345650000000     0          
O        O      0.500000000000     0.120900000000     0.393250000000     0          
O        O      0.624200000000     0.166666666667     0.338100000000     0          
O        O      0.500000000000     0.166666666667     0.074350000000     0          
O        O      0.500000000000     0.166666666667     0.169700000000     0          
O        O      0.439300000000     0.204266666667     0.171150000000     0          
O        O      0.453266666667     0.166666666667     0.267450000000     0          
O        O      0.433166666667     0.220433333333     0.229300000000     0          
O        O      0.465033333333     0.231633333333     0.344000000000     0          
O        O      0.382300000000     0.166666666667     0.427900000000     0          
O        O      0.333333333333     0.219500000000     0.420850000000     0          
O        O      0.450833333333     0.238333333333     0.285400000000     0          
O        O      0.398733333333     0.235500000000     0.325550000000     0          
O        O      0.439533333333     0.295900000000     0.322450000000     0          
O        O      0.386866666667     0.215600000000     0.382700000000     0          
O        O      0.500000000000     0.216033333333     0.246850000000     0          
O        O      0.396733333333     0.260300000000     0.188800000000     0          
O        O      0.333333333333     0.225466666667     0.345100000000     0          
O        O      0.534800000000     0.231433333333     0.443100000000     0          
O        O      0.457700000000     0.166666666667     0.122050000000     0          
O        O      0.500000000000     0.212433333333     0.393250000000     0          
O        O      0.375800000000     0.166666666667     0.338100000000     0          
O        O      0.439300000000     0.129066666667     0.171150000000     0          
O        O      0.433166666667     0.112900000000     0.229300000000     0          
O        O      0.465033333333     0.101700000000     0.344000000000     0          
O        O      0.450833333333     0.095000000000     0.285400000000     0          
O        O      0.398733333333     0.097833333333     0.325550000000     0          
O        O      0.439533333333     0.037433333333     0.322450000000     0          
O        O      0.386866666667     0.117733333333     0.382700000000     0          
O        O      0.396733333333     0.073033333333     0.188800000000     0          
O        O      0.534800000000     0.101900000000     0.443100000000     0          
O        O      0.560700000000     0.204266666667     0.171150000000     0          
O        O      0.566833333333     0.220433333333     0.229300000000     0          
O        O      0.534966666667     0.231633333333     0.344000000000     0          
O        O      0.549166666667     0.238333333333     0.285400000000     0          
O        O      0.601266666667     0.235500000000     0.325550000000     0          
O        O      0.560466666667     0.295900000000     0.322450000000     0          
O        O      0.613133333333     0.215600000000     0.382700000000     0          
O        O      0.603266666667     0.260300000000     0.188800000000     0          
O        O      0.465200000000     0.231433333333     0.443100000000     0          
O        O      0.560700000000     0.295733333333     0.421150000000     0          
O        O      0.546733333333     0.000000000000     0.017450000000     0          
O        O      0.566833333333     0.279566666667     0.479300000000     0          
O        O      0.534966666667     0.268366666667     0.094000000000     0          
O        O      0.617700000000     0.000000000000     0.177900000000     0          
O        O      0.333333333333     0.280500000000     0.170850000000     0          
O        O      0.549166666667     0.261666666667     0.035400000000     0          
O        O      0.601266666667     0.264500000000     0.075550000000     0          
O        O      0.560466666667     0.204100000000     0.072450000000     0          
O        O      0.613133333333     0.284400000000     0.132700000000     0          
O        O      0.500000000000     0.283966666667     0.496850000000     0          
O        O      0.603266666667     0.239700000000     0.438800000000     0          
O        O      0.500000000000     0.000000000000     0.190850000000     0          
O        O      0.333333333333     0.274533333333     0.095100000000     0          
O        O      0.465200000000     0.268566666667     0.193100000000     0          
O        O      0.542300000000     0.000000000000     0.372050000000     0          
O        O      0.500000000000     0.000000000000     0.095650000000     0          
O        O      0.500000000000     0.287566666667     0.143250000000     0          
O        O      0.624200000000     0.000000000000     0.088100000000     0          
O        O      0.500000000000     0.000000000000     0.324350000000     0          
O        O      0.500000000000     0.000000000000     0.419700000000     0          
O        O      0.439300000000     0.037600000000     0.421150000000     0          
O        O      0.453266666667     0.000000000000     0.017450000000     0          
O        O      0.433166666667     0.053766666667     0.479300000000     0          
O        O      0.465033333333     0.064966666667     0.094000000000     0          
O        O      0.382300000000     0.000000000000     0.177900000000     0          
O        O      0.333333333333     0.052833333333     0.170850000000     0          
O        O      0.450833333333     0.071666666667     0.035400000000     0          
O        O      0.398733333333     0.068833333333     0.075550000000     0          
O        O      0.439533333333     0.129233333333     0.072450000000     0          
O        O      0.386866666667     0.048933333333     0.132700000000     0          
O        O      0.500000000000     0.049366666667     0.496850000000     0          
O        O      0.396733333333     0.093633333333     0.438800000000     0          
O        O      0.333333333333     0.058800000000     0.095100000000     0          
O        O      0.534800000000     0.064766666667     0.193100000000     0          
O        O      0.457700000000     0.000000000000     0.372050000000     0          
O        O      0.500000000000     0.045766666667     0.143250000000     0          
O        O      0.375800000000     0.000000000000     0.088100000000     0          
O        O      0.439300000000     0.295733333333     0.421150000000     0          
O        O      0.433166666667     0.279566666667     0.479300000000     0          
O        O      0.465033333333     0.268366666667     0.094000000000     0          
O        O      0.450833333333     0.261666666667     0.035400000000     0          
O        O      0.398733333333     0.264500000000     0.075550000000     0          
O        O      0.439533333333     0.204100000000     0.072450000000     0          
O        O      0.386866666667     0.284400000000     0.132700000000     0          
O        O      0.396733333333     0.239700000000     0.438800000000     0          
O        O      0.534800000000     0.268566666667     0.193100000000     0          
O        O      0.560700000000     0.037600000000     0.421150000000     0          
O        O      0.566833333333     0.053766666667     0.479300000000     0          
O        O      0.534966666667     0.064966666667     0.094000000000     0          
O        O      0.549166666667     0.071666666667     0.035400000000     0          
O        O      0.601266666667     0.068833333333     0.075550000000     0          
O        O      0.560466666667     0.129233333333     0.072450000000     0          
O        O      0.613133333333     0.048933333333     0.132700000000     0          
O        O      0.603266666667     0.093633333333     0.438800000000     0          
O        O      0.465200000000     0.064766666667     0.193100000000     0          
O        O      0.560700000000     0.129066666667     0.671150000000     0          
O        O      0.546733333333     0.166666666667     0.767450000000     0          
O        O      0.566833333333     0.112900000000     0.729300000000     0          
O        O      0.534966666667     0.101700000000     0.844000000000     0          
O        O      0.617700000000     0.166666666667     0.927900000000     0          
O        O      0.333333333333     0.113833333333     0.920850000000     0          
O        O      0.549166666667     0.095000000000     0.785400000000     0          
O        O      0.601266666667     0.097833333333     0.825550000000     0          
O        O      0.560466666667     0.037433333333     0.822450000000     0          
O        O      0.613133333333     0.117733333333     0.882700000000     0          
O        O      0.500000000000     0.117300000000     0.746850000000     0          
O        O      0.603266666667     0.073033333333     0.688800000000     0          
O        O      0.500000000000     0.166666666667     0.940850000000     0          
O        O      0.333333333333     0.107866666667     0.845100000000     0          
O        O      0.465200000000     0.101900000000     0.943100000000     0          
O        O      0.542300000000     0.166666666667     0.622050000000     0          
O        O      0.500000000000     0.166666666667     0.845650000000     0          
O        O      0.500000000000     0.120900000000     0.893250000000     0          
O        O      0.624200000000     0.166666666667     0.838100000000     0          
O        O      0.500000000000     0.166666666667     0.574350000000     0          
O        O      0.500000000000     0.166666666667     0.669700000000     0          
O        O      0.439300000000     0.204266666667     0.671150000000     0          
O        O      0.453266666667     0.166666666667     0.767450000000     0          
O        O      0.433166666667     0.220433333333     0.729300000000     0          
O        O      0.465033333333     0.231633333333     0.844000000000     0          
O        O      0.382300000000     0.166666666667     0.927900000000     0          
O        O      0.333333333333     0.219500000000     0.920850000000     0          
O        O      0.450833333333     0.238333333333     0.785400000000     0          
O        O      0.398733333333     0.235500000000     0.825550000000     0          
O        O      0.439533333333     0.295900000000     0.822450000000     0          
O        O      0.386866666667     0.215600000000     0.882700000000     0          
O        O      0.500000000000     0.216033333333     0.746850000000     0          
O        O      0.396733333333     0.260300000000     0.688800000000     0          
O        O      0.333333333333     0.225466666667     0.845100000000     0          
O        O      0.534800000000     0.231433333333     0.943100000000     0          
O        O      0.457700000000     0.166666666667     0.622050000000     0          
O        O      0.500000000000     0.212433333333     0.893250000000     0          
O        O      0.375800000000     0.166666666667     0.838100000000     0          
O        O      0.439300000000     0.129066666667     0.671150000000     0          
O        O      0.433166666667     0.112900000000     0.729300000000     0          
O        O      0.465033333333     0.101700000000     0.844000000000     0          
O        O      0.450833333333     0.095000000000     0.785400000000     0          
O        O      0.398733333333     0.097833333333     0.825550000000     0          
O        O      0.439533333333     0.037433333333     0.822450000000     0          
O        O      0.386866666667     0.117733333333     0.882700000000     0          
O        O      0.396733333333     0.073033333333     0.688800000000     0          
O        O      0.534800000000     0.101900000000     0.943100000000     0          
O        O      0.560700000000     0.204266666667     0.671150000000     0          
O        O      0.566833333333     0.220433333333     0.729300000000     0          
O        O      0.534966666667     0.231633333333     0.844000000000     0          
O        O      0.549166666667     0.238333333333     0.785400000000     0          
O        O      0.601266666667     0.235500000000     0.825550000000     0          
O        O      0.560466666667     0.295900000000     0.822450000000     0          
O        O      0.613133333333     0.215600000000     0.882700000000     0          
O        O      0.603266666667     0.260300000000     0.688800000000     0          
O        O      0.465200000000     0.231433333333     0.943100000000     0          
O        O      0.560700000000     0.295733333333     0.921150000000     0          
O        O      0.546733333333     0.000000000000     0.517450000000     0          
O        O      0.566833333333     0.279566666667     0.979300000000     0          
O        O      0.534966666667     0.268366666667     0.594000000000     0          
O        O      0.617700000000     0.000000000000     0.677900000000     0          
O        O      0.333333333333     0.280500000000     0.670850000000     0          
O        O      0.549166666667     0.261666666667     0.535400000000     0          
O        O      0.601266666667     0.264500000000     0.575550000000     0          
O        O      0.560466666667     0.204100000000     0.572450000000     0          
O        O      0.613133333333     0.284400000000     0.632700000000     0          
O        O      0.500000000000     0.283966666667     0.996850000000     0          
O        O      0.603266666667     0.239700000000     0.938800000000     0          
O        O      0.500000000000     0.000000000000     0.690850000000     0          
O        O      0.333333333333     0.274533333333     0.595100000000     0          
O        O      0.465200000000     0.268566666667     0.693100000000     0          
O        O      0.542300000000     0.000000000000     0.872050000000     0          
O        O      0.500000000000     0.000000000000     0.595650000000     0          
O        O      0.500000000000     0.287566666667     0.643250000000     0          
O        O      0.624200000000     0.000000000000     0.588100000000     0          
O        O      0.500000000000     0.000000000000     0.824350000000     0          
O        O      0.500000000000     0.000000000000     0.919700000000     0          
O        O      0.439300000000     0.037600000000     0.921150000000     0          
O        O      0.453266666667     0.000000000000     0.517450000000     0          
O        O      0.433166666667     0.053766666667     0.979300000000     0          
O        O      0.465033333333     0.064966666667     0.594000000000     0          
O        O      0.382300000000     0.000000000000     0.677900000000     0          
O        O      0.333333333333     0.052833333333     0.670850000000     0          
O        O      0.450833333333     0.071666666667     0.535400000000     0          
O        O      0.398733333333     0.068833333333     0.575550000000     0          
O        O      0.439533333333     0.129233333333     0.572450000000     0          
O        O      0.386866666667     0.048933333333     0.632700000000     0          
O        O      0.500000000000     0.049366666667     0.996850000000     0          
O        O      0.396733333333     0.093633333333     0.938800000000     0          
O        O      0.333333333333     0.058800000000     0.595100000000     0          
O        O      0.534800000000     0.064766666667     0.693100000000     0          
O        O      0.457700000000     0.000000000000     0.872050000000     0          
O        O      0.500000000000     0.045766666667     0.643250000000     0          
O        O      0.375800000000     0.000000000000     0.588100000000     0          
O        O      0.439300000000     0.295733333333     0.921150000000     0          
O        O      0.433166666667     0.279566666667     0.979300000000     0          
O        O      0.465033333333     0.268366666667     0.594000000000     0          
O        O      0.450833333333     0.261666666667     0.535400000000     0          
O        O      0.398733333333     0.264500000000     0.575550000000     0          
O        O      0.439533333333     0.204100000000     0.572450000000     0          
O        O      0.386866666667     0.284400000000     0.632700000000     0          
O        O      0.396733333333     0.239700000000     0.938800000000     0          
O        O      0.534800000000     0.268566666667     0.693100000000     0          
O        O      0.560700000000     0.037600000000     0.921150000000     0          
O        O      0.566833333333     0.053766666667     0.979300000000     0          
O        O      0.534966666667     0.064966666667     0.594000000000     0          
O        O      0.549166666667     0.071666666667     0.535400000000     0          
O        O      0.601266666667     0.068833333333     0.575550000000     0          
O        O      0.560466666667     0.129233333333     0.572450000000     0          
O        O      0.613133333333     0.048933333333     0.632700000000     0          
O        O      0.603266666667     0.093633333333     0.938800000000     0          
O        O      0.465200000000     0.064766666667     0.693100000000     0          
O        O      0.560700000000     0.462400000000     0.171150000000     0          
O        O      0.546733333333     0.500000000000     0.267450000000     0          
O        O      0.566833333333     0.446233333333     0.229300000000     0          
O        O      0.534966666667     0.435033333333     0.344000000000     0          
O        O      0.617700000000     0.500000000000     0.427900000000     0          
O        O      0.333333333333     0.447166666667     0.420850000000     0          
O        O      0.549166666667     0.428333333333     0.285400000000     0          
O        O      0.601266666667     0.431166666667     0.325550000000     0          
O        O      0.560466666667     0.370766666667     0.322450000000     0          
O        O      0.613133333333     0.451066666667     0.382700000000     0          
O        O      0.500000000000     0.450633333333     0.246850000000     0          
O        O      0.603266666667     0.406366666667     0.188800000000     0          
O        O      0.500000000000     0.500000000000     0.440850000000     0          
O        O      0.333333333333     0.441200000000     0.345100000000     0          
O        O      0.465200000000     0.435233333333     0.443100000000     0          
O        O      0.542300000000     0.500000000000     0.122050000000     0          
O        O      0.500000000000     0.500000000000     0.345650000000     0          
O        O      0.500000000000     0.454233333333     0.393250000000     0          
O        O      0.624200000000     0.500000000000     0.338100000000     0          
O        O      0.500000000000     0.500000000000     0.074350000000     0          
O        O      0.500000000000     0.500000000000     0.169700000000     0          
O        O      0.439300000000     0.537600000000     0.171150000000     0          
O        O      0.453266666667     0.500000000000     0.267450000000     0          
O        O      0.433166666667     0.553766666667     0.229300000000     0          
O        O      0.465033333333     0.564966666667     0.344000000000     0          
O        O      0.382300000000     0.500000000000     0.427900000000     0          
O        O      0.333333333333     0.552833333333     0.420850000000     0          
O        O      0.450833333333     0.571666666667     0.285400000000     0          
O        O      0.398733333333     0.568833333333     0.325550000000     0          
O        O      0.439533333333     0.629233333333     0.322450000000     0          
O        O      0.386866666667     0.548933333333     0.382700000000     0          
O        O      0.500000000000     0.549366666667     0.246850000000     0          
O        O      0.396733333333     0.593633333333     0.188800000000     0          
O        O      0.333333333333     0.558800000000     0.345100000000     0          
O        O      0.534800000000     0.564766666667     0.443100000000     0          
O        O      0.457700000000     0.500000000000     0.122050000000     0          
O        O      0.500000000000     0.545766666667     0.393250000000     0          
O        O      0.375800000000     0.500000000000     0.338100000000     0          
O        O      0.439300000000     0.462400000000     0.171150000000     0          
O        O      0.433166666667     0.446233333333     0.229300000000     0          
O        O      0.465033333333     0.435033333333     0.344000000000     0          
O        O      0.450833333333     0.428333333333     0.285400000000     0          
O        O      0.398733333333     0.431166666667     0.325550000000     0          
O        O      0.439533333333     0.370766666667     0.322450000000     0          
O        O      0.386866666667     0.451066666667     0.382700000000     0          
O        O      0.396733333333     0.406366666667     0.188800000000     0          
O        O      0.534800000000     0.435233333333     0.443100000000     0          
O        O      0.560700000000     0.537600000000     0.171150000000     0          
O        O      0.566833333333     0.553766666667     0.229300000000     0          
O        O      0.534966666667     0.564966666667     0.344000000000     0          
O        O      0.549166666667     0.571666666667     0.285400000000     0          
O        O      0.601266666667     0.568833333333     0.325550000000     0          
O        O      0.560466666667     0.629233333333     0.322450000000     0          
O        O      0.613133333333     0.548933333333     0.382700000000     0          
O        O      0.603266666667     0.593633333333     0.188800000000     0          
O        O      0.465200000000     0.564766666667     0.443100000000     0          
O        O      0.560700000000     0.629066666667     0.421150000000     0          
O        O      0.546733333333     0.333333333333     0.017450000000     0          
O        O      0.566833333333     0.612900000000     0.479300000000     0          
O        O      0.534966666667     0.601700000000     0.094000000000     0          
O        O      0.617700000000     0.333333333333     0.177900000000     0          
O        O      0.333333333333     0.613833333333     0.170850000000     0          
O        O      0.549166666667     0.595000000000     0.035400000000     0          
O        O      0.601266666667     0.597833333333     0.075550000000     0          
O        O      0.560466666667     0.537433333333     0.072450000000     0          
O        O      0.613133333333     0.617733333333     0.132700000000     0          
O        O      0.500000000000     0.617300000000     0.496850000000     0          
O        O      0.603266666667     0.573033333333     0.438800000000     0          
O        O      0.500000000000     0.333333333333     0.190850000000     0          
O        O      0.333333333333     0.607866666667     0.095100000000     0          
O        O      0.465200000000     0.601900000000     0.193100000000     0          
O        O      0.542300000000     0.333333333333     0.372050000000     0          
O        O      0.500000000000     0.333333333333     0.095650000000     0          
O        O      0.500000000000     0.620900000000     0.143250000000     0          
O        O      0.624200000000     0.333333333333     0.088100000000     0          
O        O      0.500000000000     0.333333333333     0.324350000000     0          
O        O      0.500000000000     0.333333333333     0.419700000000     0          
O        O      0.439300000000     0.370933333333     0.421150000000     0          
O        O      0.453266666667     0.333333333333     0.017450000000     0          
O        O      0.433166666667     0.387100000000     0.479300000000     0          
O        O      0.465033333333     0.398300000000     0.094000000000     0          
O        O      0.382300000000     0.333333333333     0.177900000000     0          
O        O      0.333333333333     0.386166666667     0.170850000000     0          
O        O      0.450833333333     0.405000000000     0.035400000000     0          
O        O      0.398733333333     0.402166666667     0.075550000000     0          
O        O      0.439533333333     0.462566666667     0.072450000000     0          
O        O      0.386866666667     0.382266666667     0.132700000000     0          
O        O      0.500000000000     0.382700000000     0.496850000000     0          
O        O      0.396733333333     0.426966666667     0.438800000000     0          
O        O      0.333333333333     0.392133333333     0.095100000000     0          
O        O      0.534800000000     0.398100000000     0.193100000000     0          
O        O      0.457700000000     0.333333333333     0.372050000000     0          
O        O      0.500000000000     0.379100000000     0.143250000000     0          
O        O      0.375800000000     0.333333333333     0.088100000000     0          
O        O      0.439300000000     0.629066666667     0.421150000000     0          
O        O      0.433166666667     0.612900000000     0.479300000000     0          
O        O      0.465033333333     0.601700000000     0.094000000000     0          
O        O      0.450833333333     0.595000000000     0.035400000000     0          
O        O      0.398733333333     0.597833333333     0.075550000000     0          
O        O      0.439533333333     0.537433333333     0.072450000000     0          
O        O      0.386866666667     0.617733333333     0.132700000000     0          
O        O      0.396733333333     0.573033333333     0.438800000000     0          
O        O      0.534800000000     0.601900000000     0.193100000000     0          
O        O      0.560700000000     0.370933333333     0.421150000000     0          
O        O      0.566833333333     0.387100000000     0.479300000000     0          
O        O      0.534966666667     0.398300000000     0.094000000000     0          
O        O      0.549166666667     0.405000000000     0.035400000000     0          
O        O      0.601266666667     0.402166666667     0.075550000000     0          
O        O      0.560466666667     0.462566666667     0.072450000000     0          
O        O      0.613133333333     0.382266666667     0.132700000000     0          
O        O      0.603266666667     0.426966666667     0.438800000000     0          
O        O      0.465200000000     0.398100000000     0.193100000000     0          
O        O      0.560700000000     0.462400000000     0.671150000000     0          
O        O      0.546733333333     0.500000000000     0.767450000000     0          
O        O      0.566833333333     0.446233333333     0.729300000000     0          
O        O      0.534966666667     0.435033333333     0.844000000000     0          
O        O      0.617700000000     0.500000000000     0.927900000000     0          
O        O      0.333333333333     0.447166666667     0.920850000000     0          
O        O      0.549166666667     0.428333333333     0.785400000000     0          
O        O      0.601266666667     0.431166666667     0.825550000000     0          
O        O      0.560466666667     0.370766666667     0.822450000000     0          
O        O      0.613133333333     0.451066666667     0.882700000000     0          
O        O      0.500000000000     0.450633333333     0.746850000000     0          
O        O      0.603266666667     0.406366666667     0.688800000000     0          
O        O      0.500000000000     0.500000000000     0.940850000000     0          
O        O      0.333333333333     0.441200000000     0.845100000000     0          
O        O      0.465200000000     0.435233333333     0.943100000000     0          
O        O      0.542300000000     0.500000000000     0.622050000000     0          
O        O      0.500000000000     0.500000000000     0.845650000000     0          
O        O      0.500000000000     0.454233333333     0.893250000000     0          
O        O      0.624200000000     0.500000000000     0.838100000000     0          
O        O      0.500000000000     0.500000000000     0.574350000000     0          
O        O      0.500000000000     0.500000000000     0.669700000000     0          
O        O      0.439300000000     0.537600000000     0.671150000000     0          
O        O      0.453266666667     0.500000000000     0.767450000000     0          
O        O      0.433166666667     0.553766666667     0.729300000000     0          
O        O      0.465033333333     0.564966666667     0.844000000000     0          
O        O      0.382300000000     0.500000000000     0.927900000000     0          
O        O      0.333333333333     0.552833333333     0.920850000000     0          
O        O      0.450833333333     0.571666666667     0.785400000000     0          
O        O      0.398733333333     0.568833333333     0.825550000000     0          
O        O      0.439533333333     0.629233333333     0.822450000000     0          
O        O      0.386866666667     0.548933333333     0.882700000000     0          
O        O      0.500000000000     0.549366666667     0.746850000000     0          
O        O      0.396733333333     0.593633333333     0.688800000000     0          
O        O      0.333333333333     0.558800000000     0.845100000000     0          
O        O      0.534800000000     0.564766666667     0.943100000000     0          
O        O      0.457700000000     0.500000000000     0.622050000000     0          
O        O      0.500000000000     0.545766666667     0.893250000000     0          
O        O      0.375800000000     0.500000000000     0.838100000000     0          
O        O      0.439300000000     0.462400000000     0.671150000000     0          
O        O      0.433166666667     0.446233333333     0.729300000000     0          
O        O      0.465033333333     0.435033333333     0.844000000000     0          
O        O      0.450833333333     0.428333333333     0.785400000000     0          
O        O      0.398733333333     0.431166666667     0.825550000000     0          
O        O      0.439533333333     0.370766666667     0.822450000000     0          
O        O      0.386866666667     0.451066666667     0.882700000000     0          
O        O      0.396733333333     0.406366666667     0.688800000000     0          
O        O      0.534800000000     0.435233333333     0.943100000000     0          
O        O      0.560700000000     0.537600000000     0.671150000000     0          
O        O      0.566833333333     0.553766666667     0.729300000000     0          
O        O      0.534966666667     0.564966666667     0.844000000000     0          
O        O      0.549166666667     0.571666666667     0.785400000000     0          
O        O      0.601266666667     0.568833333333     0.825550000000     0          
O        O      0.560466666667     0.629233333333     0.822450000000     0          
O        O      0.613133333333     0.548933333333     0.882700000000     0          
O        O      0.603266666667     0.593633333333     0.688800000000     0          
O        O      0.465200000000     0.564766666667     0.943100000000     0          
O        O      0.560700000000     0.629066666667     0.921150000000     0          
O        O      0.546733333333     0.333333333333     0.517450000000     0          
O        O      0.566833333333     0.612900000000     0.979300000000     0          
O        O      0.534966666667     0.601700000000     0.594000000000     0          
O        O      0.617700000000     0.333333333333     0.677900000000     0          
O        O      0.333333333333     0.613833333333     0.670850000000     0          
O        O      0.549166666667     0.595000000000     0.535400000000     0          
O        O      0.601266666667     0.597833333333     0.575550000000     0          
O        O      0.560466666667     0.537433333333     0.572450000000     0          
O        O      0.613133333333     0.617733333333     0.632700000000     0          
O        O      0.500000000000     0.617300000000     0.996850000000     0          
O        O      0.603266666667     0.573033333333     0.938800000000     0          
O        O      0.500000000000     0.333333333333     0.690850000000     0          
O        O      0.333333333333     0.607866666667     0.595100000000     0          
O        O      0.465200000000     0.601900000000     0.693100000000     0          
O        O      0.542300000000     0.333333333333     0.872050000000     0          
O        O      0.500000000000     0.333333333333     0.595650000000     0          
O        O      0.500000000000     0.620900000000     0.643250000000     0          
O        O      0.624200000000     0.333333333333     0.588100000000     0          
O        O      0.500000000000     0.333333333333     0.824350000000     0          
O        O      0.500000000000     0.333333333333     0.919700000000     0          
O        O      0.439300000000     0.370933333333     0.921150000000     0          
O        O      0.453266666667     0.333333333333     0.517450000000     0          
O        O      0.433166666667     0.387100000000     0.979300000000     0          
O        O      0.465033333333     0.398300000000     0.594000000000     0          
O        O      0.382300000000     0.333333333333     0.677900000000     0          
O        O      0.333333333333     0.386166666667     0.670850000000     0          
O        O      0.450833333333     0.405000000000     0.535400000000     0          
O        O      0.398733333333     0.402166666667     0.575550000000     0          
O        O      0.439533333333     0.462566666667     0.572450000000     0          
O        O      0.386866666667     0.382266666667     0.632700000000     0          
O        O      0.500000000000     0.382700000000     0.996850000000     0          
O        O      0.396733333333     0.426966666667     0.938800000000     0          
O        O      0.333333333333     0.392133333333     0.595100000000     0          
O        O      0.534800000000     0.398100000000     0.693100000000     0          
O        O      0.457700000000     0.333333333333     0.872050000000     0          
O        O      0.500000000000     0.379100000000     0.643250000000     0          
O        O      0.375800000000     0.333333333333     0.588100000000     0          
O        O      0.439300000000     0.629066666667     0.921150000000     0          
O        O      0.433166666667     0.612900000000     0.979300000000     0          
O        O      0.465033333333     0.601700000000     0.594000000000     0          
O        O      0.450833333333     0.595000000000     0.535400000000     0          
O        O      0.398733333333     0.597833333333     0.575550000000     0          
O        O      0.439533333333     0.537433333333     0.572450000000     0          
O        O      0.386866666667     0.617733333333     0.632700000000     0          
O        O      0.396733333333     0.573033333333     0.938800000000     0          
O        O      0.534800000000     0.601900000000     0.693100000000     0          
O        O      0.560700000000     0.370933333333     0.921150000000     0          
O        O      0.566833333333     0.387100000000     0.979300000000     0          
O        O      0.534966666667     0.398300000000     0.594000000000     0          
O        O      0.549166666667     0.405000000000     0.535400000000     0          
O        O      0.601266666667     0.402166666667     0.575550000000     0          
O        O      0.560466666667     0.462566666667     0.572450000000     0          
O        O      0.613133333333     0.382266666667     0.632700000000     0          
O        O      0.603266666667     0.426966666667     0.938800000000     0          
O        O      0.465200000000     0.398100000000     0.693100000000     0          
O        O      0.560700000000     0.795733333333     0.171150000000     0          
O        O      0.546733333333     0.833333333333     0.267450000000     0          
O        O      0.566833333333     0.779566666667     0.229300000000     0          
O        O      0.534966666667     0.768366666667     0.344000000000     0          
O        O      0.617700000000     0.833333333333     0.427900000000     0          
O        O      0.333333333333     0.780500000000     0.420850000000     0          
O        O      0.549166666667     0.761666666667     0.285400000000     0          
O        O      0.601266666667     0.764500000000     0.325550000000     0          
O        O      0.560466666667     0.704100000000     0.322450000000     0          
O        O      0.613133333333     0.784400000000     0.382700000000     0          
O        O      0.500000000000     0.783966666667     0.246850000000     0          
O        O      0.603266666667     0.739700000000     0.188800000000     0          
O        O      0.500000000000     0.833333333333     0.440850000000     0          
O        O      0.333333333333     0.774533333333     0.345100000000     0          
O        O      0.465200000000     0.768566666667     0.443100000000     0          
O        O      0.542300000000     0.833333333333     0.122050000000     0          
O        O      0.500000000000     0.833333333333     0.345650000000     0          
O        O      0.500000000000     0.787566666667     0.393250000000     0          
O        O      0.624200000000     0.833333333333     0.338100000000     0          
O        O      0.500000000000     0.833333333333     0.074350000000     0          
O        O      0.500000000000     0.833333333333     0.169700000000     0          
O        O      0.439300000000     0.870933333333     0.171150000000     0          
O        O      0.453266666667     0.833333333333     0.267450000000     0          
O        O      0.433166666667     0.887100000000     0.229300000000     0          
O        O      0.465033333333     0.898300000000     0.344000000000     0          
O        O      0.382300000000     0.833333333333     0.427900000000     0          
O        O      0.333333333333     0.886166666667     0.420850000000     0          
O        O      0.450833333333     0.905000000000     0.285400000000     0          
O        O      0.398733333333     0.902166666667     0.325550000000     0          
O        O      0.439533333333     0.962566666667     0.322450000000     0          
O        O      0.386866666667     0.882266666667     0.382700000000     0          
O        O      0.500000000000     0.882700000000     0.246850000000     0          
O        O      0.396733333333     0.926966666667     0.188800000000     0          
O        O      0.333333333333     0.892133333333     0.345100000000     0          
O        O      0.534800000000     0.898100000000     0.443100000000     0          
O        O      0.457700000000     0.833333333333     0.122050000000     0          
O        O      0.500000000000     0.879100000000     0.393250000000     0          
O        O      0.375800000000     0.833333333333     0.338100000000     0          
O        O      0.439300000000     0.795733333333     0.171150000000     0          
O        O      0.433166666667     0.779566666667     0.229300000000     0          
O        O      0.465033333333     0.768366666667     0.344000000000     0          
O        O      0.450833333333     0.761666666667     0.285400000000     0          
O        O      0.398733333333     0.764500000000     0.325550000000     0          
O        O      0.439533333333     0.704100000000     0.322450000000     0          
O        O      0.386866666667     0.784400000000     0.382700000000     0          
O        O      0.396733333333     0.739700000000     0.188800000000     0          
O        O      0.534800000000     0.768566666667     0.443100000000     0          
O        O      0.560700000000     0.870933333333     0.171150000000     0          
O        O      0.566833333333     0.887100000000     0.229300000000     0          
O        O      0.534966666667     0.898300000000     0.344000000000     0          
O        O      0.549166666667     0.905000000000     0.285400000000     0          
O        O      0.601266666667     0.902166666667     0.325550000000     0          
O        O      0.560466666667     0.962566666667     0.322450000000     0          
O        O      0.613133333333     0.882266666667     0.382700000000     0          
O        O      0.603266666667     0.926966666667     0.188800000000     0          
O        O      0.465200000000     0.898100000000     0.443100000000     0          
O        O      0.560700000000     0.962400000000     0.421150000000     0          
O        O      0.546733333333     0.666666666667     0.017450000000     0          
O        O      0.566833333333     0.946233333333     0.479300000000     0          
O        O      0.534966666667     0.935033333333     0.094000000000     0          
O        O      0.617700000000     0.666666666667     0.177900000000     0          
O        O      0.333333333333     0.947166666667     0.170850000000     0          
O        O      0.549166666667     0.928333333333     0.035400000000     0          
O        O      0.601266666667     0.931166666667     0.075550000000     0          
O        O      0.560466666667     0.870766666667     0.072450000000     0          
O        O      0.613133333333     0.951066666667     0.132700000000     0          
O        O      0.500000000000     0.950633333333     0.496850000000     0          
O        O      0.603266666667     0.906366666667     0.438800000000     0          
O        O      0.500000000000     0.666666666667     0.190850000000     0          
O        O      0.333333333333     0.941200000000     0.095100000000     0          
O        O      0.465200000000     0.935233333333     0.193100000000     0          
O        O      0.542300000000     0.666666666667     0.372050000000     0          
O        O      0.500000000000     0.666666666667     0.095650000000     0          
O        O      0.500000000000     0.954233333333     0.143250000000     0          
O        O      0.624200000000     0.666666666667     0.088100000000     0          
O        O      0.500000000000     0.666666666667     0.324350000000     0          
O        O      0.500000000000     0.666666666667     0.419700000000     0          
O        O      0.439300000000     0.704266666667     0.421150000000     0          
O        O      0.453266666667     0.666666666667     0.017450000000     0          
O        O      0.433166666667     0.720433333333     0.479300000000     0          
O        O      0.465033333333     0.731633333333     0.094000000000     0          
O        O      0.382300000000     0.666666666667     0.177900000000     0          
O        O      0.333333333333     0.719500000000     0.170850000000     0          
O        O      0.450833333333     0.738333333333     0.035400000000     0          
O        O      0.398733333333     0.735500000000     0.075550000000     0          
O        O      0.439533333333     0.795900000000     0.072450000000     0          
O        O      0.386866666667     0.715600000000     0.132700000000     0          
O        O      0.500000000000     0.716033333333     0.496850000000     0          
O        O      0.396733333333     0.760300000000     0.438800000000     0          
O        O      0.333333333333     0.725466666667     0.095100000000     0          
O        O      0.534800000000     0.731433333333     0.193100000000     0          
O        O      0.457700000000     0.666666666667     0.372050000000     0          
O        O      0.500000000000     0.712433333333     0.143250000000     0          
O        O      0.375800000000     0.666666666667     0.088100000000     0          
O        O      0.439300000000     0.962400000000     0.421150000000     0          
O        O      0.433166666667     0.946233333333     0.479300000000     0          
O        O      0.465033333333     0.935033333333     0.094000000000     0          
O        O      0.450833333333     0.928333333333     0.035400000000     0          
O        O      0.398733333333     0.931166666667     0.075550000000     0          
O        O      0.439533333333     0.870766666667     0.072450000000     0          
O        O      0.386866666667     0.951066666667     0.132700000000     0          
O        O      0.396733333333     0.906366666667     0.438800000000     0          
O        O      0.534800000000     0.935233333333     0.193100000000     0          
O        O      0.560700000000     0.704266666667     0.421150000000     0          
O        O      0.566833333333     0.720433333333     0.479300000000     0          
O        O      0.534966666667     0.731633333333     0.094000000000     0          
O        O      0.549166666667     0.738333333333     0.035400000000     0          
O        O      0.601266666667     0.735500000000     0.075550000000     0          
O        O      0.560466666667     0.795900000000     0.072450000000     0          
O        O      0.613133333333     0.715600000000     0.132700000000     0          
O        O      0.603266666667     0.760300000000     0.438800000000     0          
O        O      0.465200000000     0.731433333333     0.193100000000     0          
O        O      0.560700000000     0.795733333333     0.671150000000     0          
O        O      0.546733333333     0.833333333333     0.767450000000     0          
O        O      0.566833333333     0.779566666667     0.729300000000     0          
O        O      0.534966666667     0.768366666667     0.844000000000     0          
O        O      0.617700000000     0.833333333333     0.927900000000     0          
O        O      0.333333333333     0.780500000000     0.920850000000     0          
O        O      0.549166666667     0.761666666667     0.785400000000     0          
O        O      0.601266666667     0.764500000000     0.825550000000     0          
O        O      0.560466666667     0.704100000000     0.822450000000     0          
O        O      0.613133333333     0.784400000000     0.882700000000     0          
O        O      0.500000000000     0.783966666667     0.746850000000     0          
O        O      0.603266666667     0.739700000000     0.688800000000     0          
O        O      0.500000000000     0.833333333333     0.940850000000     0          
O        O      0.333333333333     0.774533333333     0.845100000000     0          
O        O      0.465200000000     0.768566666667     0.943100000000     0          
O        O      0.542300000000     0.833333333333     0.622050000000     0          
O        O      0.500000000000     0.833333333333     0.845650000000     0          
O        O      0.500000000000     0.787566666667     0.893250000000     0          
O        O      0.624200000000     0.833333333333     0.838100000000     0          
O        O      0.500000000000     0.833333333333     0.574350000000     0          
O        O      0.500000000000     0.833333333333     0.669700000000     0          
O        O      0.439300000000     0.870933333333     0.671150000000     0          
O        O      0.453266666667     0.833333333333     0.767450000000     0          
O        O      0.433166666667     0.887100000000     0.729300000000     0          
O        O      0.465033333333     0.898300000000     0.844000000000     0          
O        O      0.382300000000     0.833333333333     0.927900000000     0          
O        O      0.333333333333     0.886166666667     0.920850000000     0          
O        O      0.450833333333     0.905000000000     0.785400000000     0          
O        O      0.398733333333     0.902166666667     0.825550000000     0          
O        O      0.439533333333     0.962566666667     0.822450000000     0          
O        O      0.386866666667     0.882266666667     0.882700000000     0          
O        O      0.500000000000     0.882700000000     0.746850000000     0          
O        O      0.396733333333     0.926966666667     0.688800000000     0          
O        O      0.333333333333     0.892133333333     0.845100000000     0          
O        O      0.534800000000     0.898100000000     0.943100000000     0          
O        O      0.457700000000     0.833333333333     0.622050000000     0          
O        O      0.500000000000     0.879100000000     0.893250000000     0          
O        O      0.375800000000     0.833333333333     0.838100000000     0          
O        O      0.439300000000     0.795733333333     0.671150000000     0          
O        O      0.433166666667     0.779566666667     0.729300000000     0          
O        O      0.465033333333     0.768366666667     0.844000000000     0          
O        O      0.450833333333     0.761666666667     0.785400000000     0          
O        O      0.398733333333     0.764500000000     0.825550000000     0          
O        O      0.439533333333     0.704100000000     0.822450000000     0          
O        O      0.386866666667     0.784400000000     0.882700000000     0          
O        O      0.396733333333     0.739700000000     0.688800000000     0          
O        O      0.534800000000     0.768566666667     0.943100000000     0          
O        O      0.560700000000     0.870933333333     0.671150000000     0          
O        O      0.566833333333     0.887100000000     0.729300000000     0          
O        O      0.534966666667     0.898300000000     0.844000000000     0          
O        O      0.549166666667     0.905000000000     0.785400000000     0          
O        O      0.601266666667     0.902166666667     0.825550000000     0          
O        O      0.560466666667     0.962566666667     0.822450000000     0          
O        O      0.613133333333     0.882266666667     0.882700000000     0          
O        O      0.603266666667     0.926966666667     0.688800000000     0          
O        O      0.465200000000     0.898100000000     0.943100000000     0          
O        O      0.560700000000     0.962400000000     0.921150000000     0          
O        O      0.546733333333     0.666666666667     0.517450000000     0          
O        O      0.566833333333     0.946233333333     0.979300000000     0          
O        O      0.534966666667     0.935033333333     0.594000000000     0          
O        O      0.617700000000     0.666666666667     0.677900000000     0          
O        O      0.333333333333     0.947166666667     0.670850000000     0          
O        O      0.549166666667     0.928333333333     0.535400000000     0          
O        O      0.601266666667     0.931166666667     0.575550000000     0          
O        O      0.560466666667     0.870766666667     0.572450000000     0          
O        O      0.613133333333     0.951066666667     0.632700000000     0          
O        O      0.500000000000     0.950633333333     0.996850000000     0          
O        O      0.603266666667     0.906366666667     0.938800000000     0          
O        O      0.500000000000     0.666666666667     0.690850000000     0          
O        O      0.333333333333     0.941200000000     0.595100000000     0          
O        O      0.465200000000     0.935233333333     0.693100000000     0          
O        O      0.542300000000     0.666666666667     0.872050000000     0          
O        O      0.500000000000     0.666666666667     0.595650000000     0          
O        O      0.500000000000     0.954233333333     0.643250000000     0          
O        O      0.624200000000     0.666666666667     0.588100000000     0          
O        O      0.500000000000     0.666666666667     0.824350000000     0          
O        O      0.500000000000     0.666666666667     0.919700000000     0          
O        O      0.439300000000     0.704266666667     0.921150000000     0          
O        O      0.453266666667     0.666666666667     0.517450000000     0          
O        O      0.433166666667     0.720433333333     0.979300000000     0          
O        O      0.465033333333     0.731633333333     0.594000000000     0          
O        O      0.382300000000     0.666666666667     0.677900000000     0          
O        O      0.333333333333     0.719500000000     0.670850000000     0          
O        O      0.450833333333     0.738333333333     0.535400000000     0          
O        O      0.398733333333     0.735500000000     0.575550000000     0          
O        O      0.439533333333     0.795900000000     0.572450000000     0          
O        O      0.386866666667     0.715600000000     0.632700000000     0          
O        O      0.500000000000     0.716033333333     0.996850000000     0          
O        O      0.396733333333     0.760300000000     0.938800000000     0          
O        O      0.333333333333     0.725466666667     0.595100000000     0          
O        O      0.534800000000     0.731433333333     0.693100000000     0          
O        O      0.457700000000     0.666666666667     0.872050000000     0          
O        O      0.500000000000     0.712433333333     0.643250000000     0          
O        O      0.375800000000     0.666666666667     0.588100000000     0          
O        O      0.439300000000     0.962400000000     0.921150000000     0          
O        O      0.433166666667     0.946233333333     0.979300000000     0          
O        O      0.465033333333     0.935033333333     0.594000000000     0          
O        O      0.450833333333     0.928333333333     0.535400000000     0          
O        O      0.398733333333     0.931166666667     0.575550000000     0          
O        O      0.439533333333     0.870766666667     0.572450000000     0          
O        O      0.386866666667     0.951066666667     0.632700000000     0          
O        O      0.396733333333     0.906366666667     0.938800000000     0          
O        O      0.534800000000     0.935233333333     0.693100000000     0          
O        O      0.560700000000     0.704266666667     0.921150000000     0          
O        O      0.566833333333     0.720433333333     0.979300000000     0          
O        O      0.534966666667     0.731633333333     0.594000000000     0          
O        O      0.549166666667     0.738333333333     0.535400000000     0          
O        O      0.601266666667     0.735500000000     0.575550000000     0          
O        O      0.560466666667     0.795900000000     0.572450000000     0          
O        O      0.613133333333     0.715600000000     0.632700000000     0          
O        O      0.603266666667     0.760300000000     0.938800000000     0          
O        O      0.465200000000     0.731433333333     0.693100000000     0          
O        O      0.894033333333     0.129066666667     0.171150000000     0          
O        O      0.880066666667     0.166666666667     0.267450000000     0          
O        O      0.900166666667     0.112900000000     0.229300000000     0          
O        O      0.868300000000     0.101700000000     0.344000000000     0          
O        O      0.951033333333     0.166666666667     0.427900000000     0          
O        O      0.666666666667     0.113833333333     0.420850000000     0          
O        O      0.882500000000     0.095000000000     0.285400000000     0          
O        O      0.934600000000     0.097833333333     0.325550000000     0          
O        O      0.893800000000     0.037433333333     0.322450000000     0          
O        O      0.946466666667     0.117733333333     0.382700000000     0          
O        O      0.833333333333     0.117300000000     0.246850000000     0          
O        O      0.936600000000     0.073033333333     0.188800000000     0          
O        O      0.833333333333     0.166666666667     0.440850000000     0          
O        O      0.666666666667     0.107866666667     0.345100000000     0          
O        O      0.798533333333     0.101900000000     0.443100000000     0          
O        O      0.875633333333     0.166666666667     0.122050000000     0          
O        O      0.833333333333     0.166666666667     0.345650000000     0          
O        O      0.833333333333     0.120900000000     0.393250000000     0          
O        O      0.957533333333     0.166666666667     0.338100000000     0          
O        O      0.833333333333     0.166666666667     0.074350000000     0          
O        O      0.833333333333     0.166666666667     0.169700000000     0          
O        O      0.772633333333     0.204266666667     0.171150000000     0          
O        O      0.786600000000     0.166666666667     0.267450000000     0          
O        O      0.766500000000     0.220433333333     0.229300000000     0          
O        O      0.798366666667     0.231633333333     0.344000000000     0          
O        O      0.715633333333     0.166666666667     0.427900000000     0          
O        O      0.666666666667     0.219500000000     0.420850000000     0          
O        O      0.784166666667     0.238333333333     0.285400000000     0          
O        O      0.732066666667     0.235500000000     0.325550000000     0          
O        O      0.772866666667     0.295900000000     0.322450000000     0          
O        O      0.720200000000     0.215600000000     0.382700000000     0          
O        O      0.833333333333     0.216033333333     0.246850000000     0          
O        O      0.730066666667     0.260300000000     0.188800000000     0          
O        O      0.666666666667     0.225466666667     0.345100000000     0          
O        O      0.868133333333     0.231433333333     0.443100000000     0          
O        O      0.791033333333     0.166666666667     0.122050000000     0          
O        O      0.833333333333     0.212433333333     0.393250000000     0          
O        O      0.709133333333     0.166666666667     0.338100000000     0          
O        O      0.772633333333     0.129066666667     0.171150000000     0          
O        O      0.766500000000     0.112900000000     0.229300000000     0          
O        O      0.798366666667     0.101700000000     0.344000000000     0          
O        O      0.784166666667     0.095000000000     0.285400000000     0          
O        O      0.732066666667     0.097833333333     0.325550000000     0          
O        O      0.772866666667     0.037433333333     0.322450000000     0          
O        O      0.720200000000     0.117733333333     0.382700000000     0          
O        O      0.730066666667     0.073033333333     0.188800000000     0          
O        O      0.868133333333     0.101900000000     0.443100000000     0          
O        O      0.894033333333     0.204266666667     0.171150000000     0          
O        O      0.900166666667     0.220433333333     0.229300000000     0          
O        O      0.868300000000     0.231633333333     0.344000000000     0          
O        O      0.882500000000     0.238333333333     0.285400000000     0          
O        O      0.934600000000     0.235500000000     0.325550000000     0          
O        O      0.893800000000     0.295900000000     0.322450000000     0          
O        O      0.946466666667     0.215600000000     0.382700000000     0          
O        O      0.936600000000     0.260300000000     0.188800000000     0          
O        O      0.798533333333     0.231433333333     0.443100000000     0          
O        O      0.894033333333     0.295733333333     0.421150000000     0          
O        O      0.880066666667     0.000000000000     0.017450000000     0          
O        O      0.900166666667     0.279566666667     0.479300000000     0          
O        O      0.868300000000     0.268366666667     0.094000000000     0          
O        O      0.951033333333     0.000000000000     0.177900000000     0          
O        O      0.666666666667     0.280500000000     0.170850000000     0          
O        O      0.882500000000     0.261666666667     0.035400000000     0          
O        O      0.934600000000     0.264500000000     0.075550000000     0          
O        O      0.893800000000     0.204100000000     0.072450000000     0          
O        O      0.946466666667     0.284400000000     0.132700000000     0          
O        O      0.833333333333     0.283966666667     0.496850000000     0          
O        O      0.936600000000     0.239700000000     0.438800000000     0          
O        O      0.833333333333     0.000000000000     0.190850000000     0          
O        O      0.666666666667     0.274533333333     0.095100000000     0          
O        O      0.798533333333     0.268566666667     0.193100000000     0          
O        O      0.875633333333     0.000000000000     0.372050000000     0          
O        O      0.833333333333     0.000000000000     0.095650000000     0          
O        O      0.833333333333     0.287566666667     0.143250000000     0          
O        O      0.957533333333     0.000000000000     0.088100000000     0          
O        O      0.833333333333     0.000000000000     0.324350000000     0          
O        O      0.833333333333     0.000000000000     0.419700000000     0          
O        O      0.772633333333     0.037600000000     0.421150000000     0          
O        O      0.786600000000     0.000000000000     0.017450000000     0          
O        O      0.766500000000     0.053766666667     0.479300000000     0          
O        O      0.798366666667     0.064966666667     0.094000000000     0          
O        O      0.715633333333     0.000000000000     0.177900000000     0          
O        O      0.666666666667     0.052833333333     0.170850000000     0          
O        O      0.784166666667     0.071666666667     0.035400000000     0          
O        O      0.732066666667     0.068833333333     0.075550000000     0          
O        O      0.772866666667     0.129233333333     0.072450000000     0          
O        O      0.720200000000     0.048933333333     0.132700000000     0          
O        O      0.833333333333     0.049366666667     0.496850000000     0          
O        O      0.730066666667     0.093633333333     0.438800000000     0          
O        O      0.666666666667     0.058800000000     0.095100000000     0          
O        O      0.868133333333     0.064766666667     0.193100000000     0          
O        O      0.791033333333     0.000000000000     0.372050000000     0          
O        O      0.833333333333     0.045766666667     0.143250000000     0          
O        O      0.709133333333     0.000000000000     0.088100000000     0          
O        O      0.772633333333     0.295733333333     0.421150000000     0          
O        O      0.766500000000     0.279566666667     0.479300000000     0          
O        O      0.798366666667     0.268366666667     0.094000000000     0          
O        O      0.784166666667     0.261666666667     0.035400000000     0          
O        O      0.732066666667     0.264500000000     0.075550000000     0          
O        O      0.772866666667     0.204100000000     0.072450000000     0          
O        O      0.720200000000     0.284400000000     0.132700000000     0          
O        O      0.730066666667     0.239700000000     0.438800000000     0          
O        O      0.868133333333     0.268566666667     0.193100000000     0          
O        O      0.894033333333     0.037600000000     0.421150000000     0          
O        O      0.900166666667     0.053766666667     0.479300000000     0          
O        O      0.868300000000     0.064966666667     0.094000000000     0          
O        O      0.882500000000     0.071666666667     0.035400000000     0          
O        O      0.934600000000     0.068833333333     0.075550000000     0          
O        O      0.893800000000     0.129233333333     0.072450000000     0          
O        O      0.946466666667     0.048933333333     0.132700000000     0          
O        O      0.936600000000     0.093633333333     0.438800000000     0          
O        O      0.798533333333     0.064766666667     0.193100000000     0          
O        O      0.894033333333     0.129066666667     0.671150000000     0          
O        O      0.880066666667     0.166666666667     0.767450000000     0          
O        O      0.900166666667     0.112900000000     0.729300000000     0          
O        O      0.868300000000     0.101700000000     0.844000000000     0          
O        O      0.951033333333     0.166666666667     0.927900000000     0          
O        O      0.666666666667     0.113833333333     0.920850000000     0          
O        O      0.882500000000     0.095000000000     0.785400000000     0          
O        O      0.934600000000     0.097833333333     0.825550000000     0          
O        O      0.893800000000     0.037433333333     0.822450000000     0          
O        O      0.946466666667     0.117733333333     0.882700000000     0          
O        O      0.833333333333     0.117300000000     0.746850000000     0          
O        O      0.936600000000     0.073033333333     0.688800000000     0          
O        O      0.833333333333     0.166666666667     0.940850000000     0          
O        O      0.666666666667     0.107866666667     0.845100000000     0          
O        O      0.798533333333     0.101900000000     0.943100000000     0          
O        O      0.875633333333     0.166666666667     0.622050000000     0          
O        O      0.833333333333     0.166666666667     0.845650000000     0          
O        O      0.833333333333     0.120900000000     0.893250000000     0          
O        O      0.957533333333     0.166666666667     0.838100000000     0          
O        O      0.833333333333     0.166666666667     0.574350000000     0          
O        O      0.833333333333     0.166666666667     0.669700000000     0          
O        O      0.772633333333     0.204266666667     0.671150000000     0          
O        O      0.786600000000     0.166666666667     0.767450000000     0          
O        O      0.766500000000     0.220433333333     0.729300000000     0          
O        O      0.798366666667     0.231633333333     0.844000000000     0          
O        O      0.715633333333     0.166666666667     0.927900000000     0          
O        O      0.666666666667     0.219500000000     0.920850000000     0          
O        O      0.784166666667     0.238333333333     0.785400000000     0          
O        O      0.732066666667     0.235500000000     0.825550000000     0          
O        O      0.772866666667     0.295900000000     0.822450000000     0          
O        O      0.720200000000     0.215600000000     0.882700000000     0          
O        O      0.833333333333     0.216033333333     0.746850000000     0          
O        O      0.730066666667     0.260300000000     0.688800000000     0          
O        O      0.666666666667     0.225466666667     0.845100000000     0          
O        O      0.868133333333     0.231433333333     0.943100000000     0          
O        O      0.791033333333     0.166666666667     0.622050000000     0          
O        O      0.833333333333     0.212433333333     0.893250000000     0          
O        O      0.709133333333     0.166666666667     0.838100000000     0          
O        O      0.772633333333     0.129066666667     0.671150000000     0          
O        O      0.766500000000     0.112900000000     0.729300000000     0          
O        O      0.798366666667     0.101700000000     0.844000000000     0          
O        O      0.784166666667     0.095000000000     0.785400000000     0          
O        O      0.732066666667     0.097833333333     0.825550000000     0          
O        O      0.772866666667     0.037433333333     0.822450000000     0          
O        O      0.720200000000     0.117733333333     0.882700000000     0          
O        O      0.730066666667     0.073033333333     0.688800000000     0          
O        O      0.868133333333     0.101900000000     0.943100000000     0          
O        O      0.894033333333     0.204266666667     0.671150000000     0          
O        O      0.900166666667     0.220433333333     0.729300000000     0          
O        O      0.868300000000     0.231633333333     0.844000000000     0          
O        O      0.882500000000     0.238333333333     0.785400000000     0          
O        O      0.934600000000     0.235500000000     0.825550000000     0          
O        O      0.893800000000     0.295900000000     0.822450000000     0          
O        O      0.946466666667     0.215600000000     0.882700000000     0          
O        O      0.936600000000     0.260300000000     0.688800000000     0          
O        O      0.798533333333     0.231433333333     0.943100000000     0          
O        O      0.894033333333     0.295733333333     0.921150000000     0          
O        O      0.880066666667     0.000000000000     0.517450000000     0          
O        O      0.900166666667     0.279566666667     0.979300000000     0          
O        O      0.868300000000     0.268366666667     0.594000000000     0          
O        O      0.951033333333     0.000000000000     0.677900000000     0          
O        O      0.666666666667     0.280500000000     0.670850000000     0          
O        O      0.882500000000     0.261666666667     0.535400000000     0          
O        O      0.934600000000     0.264500000000     0.575550000000     0          
O        O      0.893800000000     0.204100000000     0.572450000000     0          
O        O      0.946466666667     0.284400000000     0.632700000000     0          
O        O      0.833333333333     0.283966666667     0.996850000000     0          
O        O      0.936600000000     0.239700000000     0.938800000000     0          
O        O      0.833333333333     0.000000000000     0.690850000000     0          
O        O      0.666666666667     0.274533333333     0.595100000000     0          
O        O      0.798533333333     0.268566666667     0.693100000000     0          
O        O      0.875633333333     0.000000000000     0.872050000000     0          
O        O      0.833333333333     0.000000000000     0.595650000000     0          
O        O      0.833333333333     0.287566666667     0.643250000000     0          
O        O      0.957533333333     0.000000000000     0.588100000000     0          
O        O      0.833333333333     0.000000000000     0.824350000000     0          
O        O      0.833333333333     0.000000000000     0.919700000000     0          
O        O      0.772633333333     0.037600000000     0.921150000000     0          
O        O      0.786600000000     0.000000000000     0.517450000000     0          
O        O      0.766500000000     0.053766666667     0.979300000000     0          
O        O      0.798366666667     0.064966666667     0.594000000000     0          
O        O      0.715633333333     0.000000000000     0.677900000000     0          
O        O      0.666666666667     0.052833333333     0.670850000000     0          
O        O      0.784166666667     0.071666666667     0.535400000000     0          
O        O      0.732066666667     0.068833333333     0.575550000000     0          
O        O      0.772866666667     0.129233333333     0.572450000000     0          
O        O      0.720200000000     0.048933333333     0.632700000000     0          
O        O      0.833333333333     0.049366666667     0.996850000000     0          
O        O      0.730066666667     0.093633333333     0.938800000000     0          
O        O      0.666666666667     0.058800000000     0.595100000000     0          
O        O      0.868133333333     0.064766666667     0.693100000000     0          
O        O      0.791033333333     0.000000000000     0.872050000000     0          
O        O      0.833333333333     0.045766666667     0.643250000000     0          
O        O      0.709133333333     0.000000000000     0.588100000000     0          
O        O      0.772633333333     0.295733333333     0.921150000000     0          
O        O      0.766500000000     0.279566666667     0.979300000000     0          
O        O      0.798366666667     0.268366666667     0.594000000000     0          
O        O      0.784166666667     0.261666666667     0.535400000000     0          
O        O      0.732066666667     0.264500000000     0.575550000000     0          
O        O      0.772866666667     0.204100000000     0.572450000000     0          
O        O      0.720200000000     0.284400000000     0.632700000000     0          
O        O      0.730066666667     0.239700000000     0.938800000000     0          
O        O      0.868133333333     0.268566666667     0.693100000000     0          
O        O      0.894033333333     0.037600000000     0.921150000000     0          
O        O      0.900166666667     0.053766666667     0.979300000000     0          
O        O      0.868300000000     0.064966666667     0.594000000000     0          
O        O      0.882500000000     0.071666666667     0.535400000000     0          
O        O      0.934600000000     0.068833333333     0.575550000000     0          
O        O      0.893800000000     0.129233333333     0.572450000000     0          
O        O      0.946466666667     0.048933333333     0.632700000000     0          
O        O      0.936600000000     0.093633333333     0.938800000000     0          
O        O      0.798533333333     0.064766666667     0.693100000000     0          
O        O      0.894033333333     0.462400000000     0.171150000000     0          
O        O      0.880066666667     0.500000000000     0.267450000000     0          
O        O      0.900166666667     0.446233333333     0.229300000000     0          
O        O      0.868300000000     0.435033333333     0.344000000000     0          
O        O      0.951033333333     0.500000000000     0.427900000000     0          
O        O      0.666666666667     0.447166666667     0.420850000000     0          
O        O      0.882500000000     0.428333333333     0.285400000000     0          
O        O      0.934600000000     0.431166666667     0.325550000000     0          
O        O      0.893800000000     0.370766666667     0.322450000000     0          
O        O      0.946466666667     0.451066666667     0.382700000000     0          
O        O      0.833333333333     0.450633333333     0.246850000000     0          
O        O      0.936600000000     0.406366666667     0.188800000000     0          
O        O      0.833333333333     0.500000000000     0.440850000000     0          
O        O      0.666666666667     0.441200000000     0.345100000000     0          
O        O      0.798533333333     0.435233333333     0.443100000000     0          
O        O      0.875633333333     0.500000000000     0.122050000000     0          
O        O      0.833333333333     0.500000000000     0.345650000000     0          
O        O      0.833333333333     0.454233333333     0.393250000000     0          
O        O      0.957533333333     0.500000000000     0.338100000000     0          
O        O      0.833333333333     0.500000000000     0.074350000000     0          
O        O      0.833333333333     0.500000000000     0.169700000000     0          
O        O      0.772633333333     0.537600000000     0.171150000000     0          
O        O      0.786600000000     0.500000000000     0.267450000000     0          
O        O      0.766500000000     0.553766666667     0.229300000000     0          
O        O      0.798366666667     0.564966666667     0.344000000000     0          
O        O      0.715633333333     0.500000000000     0.427900000000     0          
O        O      0.666666666667     0.552833333333     0.420850000000     0          
O        O      0.784166666667     0.571666666667     0.285400000000     0          
O        O      0.732066666667     0.568833333333     0.325550000000     0          
O        O      0.772866666667     0.629233333333     0.322450000000     0          
O        O      0.720200000000     0.548933333333     0.382700000000     0          
O        O      0.833333333333     0.549366666667     0.246850000000     0          
O        O      0.730066666667     0.593633333333     0.188800000000     0          
O        O      0.666666666667     0.558800000000     0.345100000000     0          
O        O      0.868133333333     0.564766666667     0.443100000000     0          
O        O      0.791033333333     0.500000000000     0.122050000000     0          
O        O      0.833333333333     0.545766666667     0.393250000000     0          
O        O      0.709133333333     0.500000000000     0.338100000000     0          
O        O      0.772633333333     0.462400000000     0.171150000000     0          
O        O      0.766500000000     0.446233333333     0.229300000000     0          
O        O      0.798366666667     0.435033333333     0.344000000000     0          
O        O      0.784166666667     0.428333333333     0.285400000000     0          
O        O      0.732066666667     0.431166666667     0.325550000000     0          
O        O      0.772866666667     0.370766666667     0.322450000000     0          
O        O      0.720200000000     0.451066666667     0.382700000000     0          
O        O      0.730066666667     0.406366666667     0.188800000000     0          
O        O      0.868133333333     0.435233333333     0.443100000000     0          
O        O      0.894033333333     0.537600000000     0.171150000000     0          
O        O      0.900166666667     0.553766666667     0.229300000000     0          
O        O      0.868300000000     0.564966666667     0.344000000000     0          
O        O      0.882500000000     0.571666666667     0.285400000000     0          
O        O      0.934600000000     0.568833333333     0.325550000000     0          
O        O      0.893800000000     0.629233333333     0.322450000000     0          
O        O      0.946466666667     0.548933333333     0.382700000000     0          
O        O      0.936600000000     0.593633333333     0.188800000000     0          
O        O      0.798533333333     0.564766666667     0.443100000000     0          
O        O      0.894033333333     0.629066666667     0.421150000000     0          
O        O      0.880066666667     0.333333333333     0.017450000000     0          
O        O      0.900166666667     0.612900000000     0.479300000000     0          
O        O      0.868300000000     0.601700000000     0.094000000000     0          
O        O      0.951033333333     0.333333333333     0.177900000000     0          
O        O      0.666666666667     0.613833333333     0.170850000000     0          
O        O      0.882500000000     0.595000000000     0.035400000000     0          
O        O      0.934600000000     0.597833333333     0.075550000000     0          
O        O      0.893800000000     0.537433333333     0.072450000000     0          
O        O      0.946466666667     0.617733333333     0.132700000000     0          
O        O      0.833333333333     0.617300000000     0.496850000000     0          
O        O      0.936600000000     0.573033333333     0.438800000000     0          
O        O      0.833333333333     0.333333333333     0.190850000000     0          
O        O      0.666666666667     0.607866666667     0.095100000000     0          
O        O      0.798533333333     0.601900000000     0.193100000000     0          
O        O      0.875633333333     0.333333333333     0.372050000000     0          
O        O      0.833333333333     0.333333333333     0.095650000000     0          
O        O      0.833333333333     0.620900000000     0.143250000000     0          
O        O      0.957533333333     0.333333333333     0.088100000000     0          
O        O      0.833333333333     0.333333333333     0.324350000000     0          
O        O      0.833333333333     0.333333333333     0.419700000000     0          
O        O      0.772633333333     0.370933333333     0.421150000000     0          
O        O      0.786600000000     0.333333333333     0.017450000000     0          
O        O      0.766500000000     0.387100000000     0.479300000000     0          
O        O      0.798366666667     0.398300000000     0.094000000000     0          
O        O      0.715633333333     0.333333333333     0.177900000000     0          
O        O      0.666666666667     0.386166666667     0.170850000000     0          
O        O      0.784166666667     0.405000000000     0.035400000000     0          
O        O      0.732066666667     0.402166666667     0.075550000000     0          
O        O      0.772866666667     0.462566666667     0.072450000000     0          
O        O      0.720200000000     0.382266666667     0.132700000000     0          
O        O      0.833333333333     0.382700000000     0.496850000000     0          
O        O      0.730066666667     0.426966666667     0.438800000000     0          
O        O      0.666666666667     0.392133333333     0.095100000000     0          
O        O      0.868133333333     0.398100000000     0.193100000000     0          
O        O      0.791033333333     0.333333333333     0.372050000000     0          
O        O      0.833333333333     0.379100000000     0.143250000000     0          
O        O      0.709133333333     0.333333333333     0.088100000000     0          
O        O      0.772633333333     0.629066666667     0.421150000000     0          
O        O      0.766500000000     0.612900000000     0.479300000000     0          
O        O      0.798366666667     0.601700000000     0.094000000000     0          
O        O      0.784166666667     0.595000000000     0.035400000000     0          
O        O      0.732066666667     0.597833333333     0.075550000000     0          
O        O      0.772866666667     0.537433333333     0.072450000000     0          
O        O      0.720200000000     0.617733333333     0.132700000000     0          
O        O      0.730066666667     0.573033333333     0.438800000000     0          
O        O      0.868133333333     0.601900000000     0.193100000000     0          
O        O      0.894033333333     0.370933333333     0.421150000000     0          
O        O      0.900166666667     0.387100000000     0.479300000000     0          
O        O      0.868300000000     0.398300000000     0.094000000000     0          
O        O      0.882500000000     0.405000000000     0.035400000000     0          
O        O      0.934600000000     0.402166666667     0.075550000000     0          
O        O      0.893800000000     0.462566666667     0.072450000000     0          
O        O      0.946466666667     0.382266666667     0.132700000000     0          
O        O      0.936600000000     0.426966666667     0.438800000000     0          
O        O      0.798533333333     0.398100000000     0.193100000000     0          
O        O      0.894033333333     0.462400000000     0.671150000000     0          
O        O      0.880066666667     0.500000000000     0.767450000000     0          
O        O      0.900166666667     0.446233333333     0.729300000000     0          
O        O      0.868300000000     0.435033333333     0.844000000000     0          
O        O      0.951033333333     0.500000000000     0.927900000000     0          
O        O      0.666666666667     0.447166666667     0.920850000000     0          
O        O      0.882500000000     0.428333333333     0.785400000000     0          
O        O      0.934600000000     0.431166666667     0.825550000000     0          
O        O      0.893800000000     0.370766666667     0.822450000000     0          
O        O      0.946466666667     0.451066666667     0.882700000000     0          
O        O      0.833333333333     0.450633333333     0.746850000000     0          
O        O      0.936600000000     0.406366666667     0.688800000000     0          
O        O      0.833333333333     0.500000000000     0.940850000000     0          
O        O      0.666666666667     0.441200000000     0.845100000000     0          
O        O      0.798533333333     0.435233333333     0.943100000000     0          
O        O      0.875633333333     0.500000000000     0.622050000000     0          
O        O      0.833333333333     0.500000000000     0.845650000000     0          
O        O      0.833333333333     0.454233333333     0.893250000000     0          
O        O      0.957533333333     0.500000000000     0.838100000000     0          
O        O      0.833333333333     0.500000000000     0.574350000000     0          
O        O      0.833333333333     0.500000000000     0.669700000000     0          
O        O      0.772633333333     0.537600000000     0.671150000000     0          
O        O      0.786600000000     0.500000000000     0.767450000000     0          
O        O      0.766500000000     0.553766666667     0.729300000000     0          
O        O      0.798366666667     0.564966666667     0.844000000000     0          
O        O      0.715633333333     0.500000000000     0.927900000000     0          
O        O      0.666666666667     0.552833333333     0.920850000000     0          
O        O      0.784166666667     0.571666666667     0.785400000000     0          
O        O      0.732066666667     0.568833333333     0.825550000000     0          
O        O      0.772866666667     0.629233333333     0.822450000000     0          
O        O      0.720200000000     0.548933333333     0.882700000000     0          
O        O      0.833333333333     0.549366666667     0.746850000000     0          
O        O      0.730066666667     0.593633333333     0.688800000000     0          
O        O      0.666666666667     0.558800000000     0.845100000000     0          
O        O      0.868133333333     0.564766666667     0.943100000000     0          
O        O      0.791033333333     0.500000000000     0.622050000000     0          
O        O      0.833333333333     0.545766666667     0.893250000000     0          
O        O      0.709133333333     0.500000000000     0.838100000000     0          
O        O      0.772633333333     0.462400000000     0.671150000000     0          
O        O      0.766500000000     0.446233333333     0.729300000000     0          
O        O      0.798366666667     0.435033333333     0.844000000000     0          
O        O      0.784166666667     0.428333333333     0.785400000000     0          
O        O      0.732066666667     0.431166666667     0.825550000000     0          
O        O      0.772866666667     0.370766666667     0.822450000000     0          
O        O      0.720200000000     0.451066666667     0.882700000000     0          
O        O      0.730066666667     0.406366666667     0.688800000000     0          
O        O      0.868133333333     0.435233333333     0.943100000000     0          
O        O      0.894033333333     0.537600000000     0.671150000000     0          
O        O      0.900166666667     0.553766666667     0.729300000000     0          
O        O      0.868300000000     0.564966666667     0.844000000000     0          
O        O      0.882500000000     0.571666666667     0.785400000000     0          
O        O      0.934600000000     0.568833333333     0.825550000000     0          
O        O      0.893800000000     0.629233333333     0.822450000000     0          
O        O      0.946466666667     0.548933333333     0.882700000000     0          
O        O      0.936600000000     0.593633333333     0.688800000000     0          
O        O      0.798533333333     0.564766666667     0.943100000000     0          
O        O      0.894033333333     0.629066666667     0.921150000000     0          
O        O      0.880066666667     0.333333333333     0.517450000000     0          
O        O      0.900166666667     0.612900000000     0.979300000000     0          
O        O      0.868300000000     0.601700000000     0.594000000000     0          
O        O      0.951033333333     0.333333333333     0.677900000000     0          
O        O      0.666666666667     0.613833333333     0.670850000000     0          
O        O      0.882500000000     0.595000000000     0.535400000000     0          
O        O      0.934600000000     0.597833333333     0.575550000000     0          
O        O      0.893800000000     0.537433333333     0.572450000000     0          
O        O      0.946466666667     0.617733333333     0.632700000000     0          
O        O      0.833333333333     0.617300000000     0.996850000000     0          
O        O      0.936600000000     0.573033333333     0.938800000000     0          
O        O      0.833333333333     0.333333333333     0.690850000000     0          
O        O      0.666666666667     0.607866666667     0.595100000000     0          
O        O      0.798533333333     0.601900000000     0.693100000000     0          
O        O      0.875633333333     0.333333333333     0.872050000000     0          
O        O      0.833333333333     0.333333333333     0.595650000000     0          
O        O      0.833333333333     0.620900000000     0.643250000000     0          
O        O      0.957533333333     0.333333333333     0.588100000000     0          
O        O      0.833333333333     0.333333333333     0.824350000000     0          
O        O      0.833333333333     0.333333333333     0.919700000000     0          
O        O      0.772633333333     0.370933333333     0.921150000000     0          
O        O      0.786600000000     0.333333333333     0.517450000000     0          
O        O      0.766500000000     0.387100000000     0.979300000000     0          
O        O      0.798366666667     0.398300000000     0.594000000000     0          
O        O      0.715633333333     0.333333333333     0.677900000000     0          
O        O      0.666666666667     0.386166666667     0.670850000000     0          
O        O      0.784166666667     0.405000000000     0.535400000000     0          
O        O      0.732066666667     0.402166666667     0.575550000000     0          
O        O      0.772866666667     0.462566666667     0.572450000000     0          
O        O      0.720200000000     0.382266666667     0.632700000000     0          
O        O      0.833333333333     0.382700000000     0.996850000000     0          
O        O      0.730066666667     0.426966666667     0.938800000000     0          
O        O      0.666666666667     0.392133333333     0.595100000000     0          
O        O      0.868133333333     0.398100000000     0.693100000000     0          
O        O      0.791033333333     0.333333333333     0.872050000000     0          
O        O      0.833333333333     0.379100000000     0.643250000000     0          
O        O      0.709133333333     0.333333333333     0.588100000000     0          
O        O      0.772633333333     0.629066666667     0.921150000000     0          
O        O      0.766500000000     0.612900000000     0.979300000000     0          
O        O      0.798366666667     0.601700000000     0.594000000000     0          
O        O      0.784166666667     0.595000000000     0.535400000000     0          
O        O      0.732066666667     0.597833333333     0.575550000000     0          
O        O      0.772866666667     0.537433333333     0.572450000000     0          
O        O      0.720200000000     0.617733333333     0.632700000000     0          
O        O      0.730066666667     0.573033333333     0.938800000000     0          
O        O      0.868133333333     0.601900000000     0.693100000000     0          
O        O      0.894033333333     0.370933333333     0.921150000000     0          
O        O      0.900166666667     0.387100000000     0.979300000000     0          
O        O      0.868300000000     0.398300000000     0.594000000000     0          
O        O      0.882500000000     0.405000000000     0.535400000000     0          
O        O      0.934600000000     0.402166666667     0.575550000000     0          
O        O      0.893800000000     0.462566666667     0.572450000000     0          
O        O      0.946466666667     0.382266666667     0.632700000000     0          
O        O      0.936600000000     0.426966666667     0.938800000000     0          
O        O      0.798533333333     0.398100000000     0.693100000000     0          
O        O      0.894033333333     0.795733333333     0.171150000000     0          
O        O      0.880066666667     0.833333333333     0.267450000000     0          
O        O      0.900166666667     0.779566666667     0.229300000000     0          
O        O      0.868300000000     0.768366666667     0.344000000000     0          
O        O      0.951033333333     0.833333333333     0.427900000000     0          
O        O      0.666666666667     0.780500000000     0.420850000000     0          
O        O      0.882500000000     0.761666666667     0.285400000000     0          
O        O      0.934600000000     0.764500000000     0.325550000000     0          
O        O      0.893800000000     0.704100000000     0.322450000000     0          
O        O      0.946466666667     0.784400000000     0.382700000000     0          
O        O      0.833333333333     0.783966666667     0.246850000000     0          
O        O      0.936600000000     0.739700000000     0.188800000000     0          
O        O      0.833333333333     0.833333333333     0.440850000000     0          
O        O      0.666666666667     0.774533333333     0.345100000000     0          
O        O      0.798533333333     0.768566666667     0.443100000000     0          
O        O      0.875633333333     0.833333333333     0.122050000000     0          
O        O      0.833333333333     0.833333333333     0.345650000000     0          
O        O      0.833333333333     0.787566666667     0.393250000000     0          
O        O      0.957533333333     0.833333333333     0.338100000000     0          
O        O      0.833333333333     0.833333333333     0.074350000000     0          
O        O      0.833333333333     0.833333333333     0.169700000000     0          
O        O      0.772633333333     0.870933333333     0.171150000000     0          
O        O      0.786600000000     0.833333333333     0.267450000000     0          
O        O      0.766500000000     0.887100000000     0.229300000000     0          
O        O      0.798366666667     0.898300000000     0.344000000000     0          
O        O      0.715633333333     0.833333333333     0.427900000000     0          
O        O      0.666666666667     0.886166666667     0.420850000000     0          
O        O      0.784166666667     0.905000000000     0.285400000000     0          
O        O      0.732066666667     0.902166666667     0.325550000000     0          
O        O      0.772866666667     0.962566666667     0.322450000000     0          
O        O      0.720200000000     0.882266666667     0.382700000000     0          
O        O      0.833333333333     0.882700000000     0.246850000000     0          
O        O      0.730066666667     0.926966666667     0.188800000000     0          
O        O      0.666666666667     0.892133333333     0.345100000000     0          
O        O      0.868133333333     0.898100000000     0.443100000000     0          
O        O      0.791033333333     0.833333333333     0.122050000000     0          
O        O      0.833333333333     0.879100000000     0.393250000000     0          
O        O      0.709133333333     0.833333333333     0.338100000000     0          
O        O      0.772633333333     0.795733333333     0.171150000000     0          
O        O      0.766500000000     0.779566666667     0.229300000000     0          
O        O      0.798366666667     0.768366666667     0.344000000000     0          
O        O      0.784166666667     0.761666666667     0.285400000000     0          
O        O      0.732066666667     0.764500000000     0.325550000000     0          
O        O      0.772866666667     0.704100000000     0.322450000000     0          
O        O      0.720200000000     0.784400000000     0.382700000000     0          
O        O      0.730066666667     0.739700000000     0.188800000000     0          
O        O      0.868133333333     0.768566666667     0.443100000000     0          
O        O      0.894033333333     0.870933333333     0.171150000000     0          
O        O      0.900166666667     0.887100000000     0.229300000000     0          
O        O      0.868300000000     0.898300000000     0.344000000000     0          
O        O      0.882500000000     0.905000000000     0.285400000000     0          
O        O      0.934600000000     0.902166666667     0.325550000000     0          
O        O      0.893800000000     0.962566666667     0.322450000000     0          
O        O      0.946466666667     0.882266666667     0.382700000000     0          
O        O      0.936600000000     0.926966666667     0.188800000000     0          
O        O      0.798533333333     0.898100000000     0.443100000000     0          
O        O      0.894033333333     0.962400000000     0.421150000000     0          
O        O      0.880066666667     0.666666666667     0.017450000000     0          
O        O      0.900166666667     0.946233333333     0.479300000000     0          
O        O      0.868300000000     0.935033333333     0.094000000000     0          
O        O      0.951033333333     0.666666666667     0.177900000000     0          
O        O      0.666666666667     0.947166666667     0.170850000000     0          
O        O      0.882500000000     0.928333333333     0.035400000000     0          
O        O      0.934600000000     0.931166666667     0.075550000000     0          
O        O      0.893800000000     0.870766666667     0.072450000000     0          
O        O      0.946466666667     0.951066666667     0.132700000000     0          
O        O      0.833333333333     0.950633333333     0.496850000000     0          
O        O      0.936600000000     0.906366666667     0.438800000000     0          
O        O      0.833333333333     0.666666666667     0.190850000000     0          
O        O      0.666666666667     0.941200000000     0.095100000000     0          
O        O      0.798533333333     0.935233333333     0.193100000000     0          
O        O      0.875633333333     0.666666666667     0.372050000000     0          
O        O      0.833333333333     0.666666666667     0.095650000000     0          
O        O      0.833333333333     0.954233333333     0.143250000000     0          
O        O      0.957533333333     0.666666666667     0.088100000000     0          
O        O      0.833333333333     0.666666666667     0.324350000000     0          
O        O      0.833333333333     0.666666666667     0.419700000000     0          
O        O      0.772633333333     0.704266666667     0.421150000000     0          
O        O      0.786600000000     0.666666666667     0.017450000000     0          
O        O      0.766500000000     0.720433333333     0.479300000000     0          
O        O      0.798366666667     0.731633333333     0.094000000000     0          
O        O      0.715633333333     0.666666666667     0.177900000000     0          
O        O      0.666666666667     0.719500000000     0.170850000000     0          
O        O      0.784166666667     0.738333333333     0.035400000000     0          
O        O      0.732066666667     0.735500000000     0.075550000000     0          
O        O      0.772866666667     0.795900000000     0.072450000000     0          
O        O      0.720200000000     0.715600000000     0.132700000000     0          
O        O      0.833333333333     0.716033333333     0.496850000000     0          
O        O      0.730066666667     0.760300000000     0.438800000000     0          
O        O      0.666666666667     0.725466666667     0.095100000000     0          
O        O      0.868133333333     0.731433333333     0.193100000000     0          
O        O      0.791033333333     0.666666666667     0.372050000000     0          
O        O      0.833333333333     0.712433333333     0.143250000000     0          
O        O      0.709133333333     0.666666666667     0.088100000000     0          
O        O      0.772633333333     0.962400000000     0.421150000000     0          
O        O      0.766500000000     0.946233333333     0.479300000000     0          
O        O      0.798366666667     0.935033333333     0.094000000000     0          
O        O      0.784166666667     0.928333333333     0.035400000000     0          
O        O      0.732066666667     0.931166666667     0.075550000000     0          
O        O      0.772866666667     0.870766666667     0.072450000000     0          
O        O      0.720200000000     0.951066666667     0.132700000000     0          
O        O      0.730066666667     0.906366666667     0.438800000000     0          
O        O      0.868133333333     0.935233333333     0.193100000000     0          
O        O      0.894033333333     0.704266666667     0.421150000000     0          
O        O      0.900166666667     0.720433333333     0.479300000000     0          
O        O      0.868300000000     0.731633333333     0.094000000000     0          
O        O      0.882500000000     0.738333333333     0.035400000000     0          
O        O      0.934600000000     0.735500000000     0.075550000000     0          
O        O      0.893800000000     0.795900000000     0.072450000000     0          
O        O      0.946466666667     0.715600000000     0.132700000000     0          
O        O      0.936600000000     0.760300000000     0.438800000000     0          
O        O      0.798533333333     0.731433333333     0.193100000000     0          
O        O      0.894033333333     0.795733333333     0.671150000000     0          
O        O      0.880066666667     0.833333333333     0.767450000000     0          
O        O      0.900166666667     0.779566666667     0.729300000000     0          
O        O      0.868300000000     0.768366666667     0.844000000000     0          
O        O      0.951033333333     0.833333333333     0.927900000000     0          
O        O      0.666666666667     0.780500000000     0.920850000000     0          
O        O      0.882500000000     0.761666666667     0.785400000000     0          
O        O      0.934600000000     0.764500000000     0.825550000000     0          
O        O      0.893800000000     0.704100000000     0.822450000000     0          
O        O      0.946466666667     0.784400000000     0.882700000000     0          
O        O      0.833333333333     0.783966666667     0.746850000000     0          
O        O      0.936600000000     0.739700000000     0.688800000000     0          
O        O      0.833333333333     0.833333333333     0.940850000000     0          
O        O      0.666666666667     0.774533333333     0.845100000000     0          
O        O      0.798533333333     0.768566666667     0.943100000000     0          
O        O      0.875633333333     0.833333333333     0.622050000000     0          
O        O      0.833333333333     0.833333333333     0.845650000000     0          
O        O      0.833333333333     0.787566666667     0.893250000000     0          
O        O      0.957533333333     0.833333333333     0.838100000000     0          
O        O      0.833333333333     0.833333333333     0.574350000000     0          
O        O      0.833333333333     0.833333333333     0.669700000000     0          
O        O      0.772633333333     0.870933333333     0.671150000000     0          
O        O      0.786600000000     0.833333333333     0.767450000000     0          
O        O      0.766500000000     0.887100000000     0.729300000000     0          
O        O      0.798366666667     0.898300000000     0.844000000000     0          
O        O      0.715633333333     0.833333333333     0.927900000000     0          
O        O      0.666666666667     0.886166666667     0.920850000000     0          
O        O      0.784166666667     0.905000000000     0.785400000000     0          
O        O      0.732066666667     0.902166666667     0.825550000000     0          
O        O      0.772866666667     0.962566666667     0.822450000000     0          
O        O      0.720200000000     0.882266666667     0.882700000000     0          
O        O      0.833333333333     0.882700000000     0.746850000000     0          
O        O      0.730066666667     0.926966666667     0.688800000000     0          
O        O      0.666666666667     0.892133333333     0.845100000000     0          
O        O      0.868133333333     0.898100000000     0.943100000000     0          
O        O      0.791033333333     0.833333333333     0.622050000000     0          
O        O      0.833333333333     0.879100000000     0.893250000000     0          
O        O      0.709133333333     0.833333333333     0.838100000000     0          
O        O      0.772633333333     0.795733333333     0.671150000000     0          
O        O      0.766500000000     0.779566666667     0.729300000000     0          
O        O      0.798366666667     0.768366666667     0.844000000000     0          
O        O      0.784166666667     0.761666666667     0.785400000000     0          
O        O      0.732066666667     0.764500000000     0.825550000000     0          
O        O      0.772866666667     0.704100000000     0.822450000000     0          
O        O      0.720200000000     0.784400000000     0.882700000000     0          
O        O      0.730066666667     0.739700000000     0.688800000000     0          
O        O      0.868133333333     0.768566666667     0.943100000000     0          
O        O      0.894033333333     0.870933333333     0.671150000000     0          
O        O      0.900166666667     0.887100000000     0.729300000000     0          
O        O      0.868300000000     0.898300000000     0.844000000000     0          
O        O      0.882500000000     0.905000000000     0.785400000000     0          
O        O      0.934600000000     0.902166666667     0.825550000000     0          
O        O      0.893800000000     0.962566666667     0.822450000000     0          
O        O      0.946466666667     0.882266666667     0.882700000000     0          
O        O      0.936600000000     0.926966666667     0.688800000000     0          
O        O      0.798533333333     0.898100000000     0.943100000000     0          
O        O      0.894033333333     0.962400000000     0.921150000000     0          
O        O      0.880066666667     0.666666666667     0.517450000000     0          
O        O      0.900166666667     0.946233333333     0.979300000000     0          
O        O      0.868300000000     0.935033333333     0.594000000000     0          
O        O      0.951033333333     0.666666666667     0.677900000000     0          
O        O      0.666666666667     0.947166666667     0.670850000000     0          
O        O      0.882500000000     0.928333333333     0.535400000000     0          
O        O      0.934600000000     0.931166666667     0.575550000000     0          
O        O      0.893800000000     0.870766666667     0.572450000000     0          
O        O      0.946466666667     0.951066666667     0.632700000000     0          
O        O      0.833333333333     0.950633333333     0.996850000000     0          
O        O      0.936600000000     0.906366666667     0.938800000000     0          
O        O      0.833333333333     0.666666666667     0.690850000000     0          
O        O      0.666666666667     0.941200000000     0.595100000000     0          
O        O      0.798533333333     0.935233333333     0.693100000000     0          
O        O      0.875633333333     0.666666666667     0.872050000000     0          
O        O      0.833333333333     0.666666666667     0.595650000000     0          
O        O      0.833333333333     0.954233333333     0.643250000000     0          
O        O      0.957533333333     0.666666666667     0.588100000000     0          
O        O      0.833333333333     0.666666666667     0.824350000000     0          
O        O      0.833333333333     0.666666666667     0.919700000000     0          
O        O      0.772633333333     0.704266666667     0.921150000000     0          
O        O      0.786600000000     0.666666666667     0.517450000000     0          
O        O      0.766500000000     0.720433333333     0.979300000000     0          
O        O      0.798366666667     0.731633333333     0.594000000000     0          
O        O      0.715633333333     0.666666666667     0.677900000000     0          
O        O      0.666666666667     0.719500000000     0.670850000000     0          
O        O      0.784166666667     0.738333333333     0.535400000000     0          
O        O      0.732066666667     0.735500000000     0.575550000000     0          
O        O      0.772866666667     0.795900000000     0.572450000000     0          
O        O      0.720200000000     0.715600000000     0.632700000000     0          
O        O      0.833333333333     0.716033333333     0.996850000000     0          
O        O      0.730066666667     0.760300000000     0.938800000000     0          
O        O      0.666666666667     0.725466666667     0.595100000000     0          
O        O      0.868133333333     0.731433333333     0.693100000000     0          
O        O      0.791033333333     0.666666666667     0.872050000000     0          
O        O      0.833333333333     0.712433333333     0.643250000000     0          
O        O      0.709133333333     0.666666666667     0.588100000000     0          
O        O      0.772633333333     0.962400000000     0.921150000000     0          
O        O      0.766500000000     0.946233333333     0.979300000000     0          
O        O      0.798366666667     0.935033333333     0.594000000000     0          
O        O      0.784166666667     0.928333333333     0.535400000000     0          
O        O      0.732066666667     0.931166666667     0.575550000000     0          
O        O      0.772866666667     0.870766666667     0.572450000000     0          
O        O      0.720200000000     0.951066666667     0.632700000000     0          
O        O      0.730066666667     0.906366666667     0.938800000000     0          
O        O      0.868133333333     0.935233333333     0.693100000000     0          
O        O      0.894033333333     0.704266666667     0.921150000000     0          
O        O      0.900166666667     0.720433333333     0.979300000000     0          
O        O      0.868300000000     0.731633333333     0.594000000000     0          
O        O      0.882500000000     0.738333333333     0.535400000000     0          
O        O      0.934600000000     0.735500000000     0.575550000000     0          
O        O      0.893800000000     0.795900000000     0.572450000000     0          
O        O      0.946466666667     0.715600000000     0.632700000000     0          
O        O      0.936600000000     0.760300000000     0.938800000000     0          
O        O      0.798533333333     0.731433333333     0.693100000000     0          


