data_zeolite

_audit_creation_method RASPA-1.0
_audit_creation_date 2021-6-7
_audit_author_name ''

_cell_length_a    37.068
_cell_length_b    37.068
_cell_length_c    27.134
_cell_angle_alpha 90
_cell_angle_beta  90
_cell_angle_gamma 90
_cell_volume      37283.1

_symmetry_cell_setting          tetragonal
_symmetry_space_group_name_Hall 'P 1'
_symmetry_space_group_name_H-M  'P 1'
_symmetry_Int_Tables_number     1

_symmetry_equiv_pos_as_xyz 'x,y,z'

loop_
_atom_site_label
_atom_site_type_symbol
_atom_site_fract_x
_atom_site_fract_y
_atom_site_fract_z
_atom_site_charge
O        O      0.134100000000     0.301200000000     0.185100000000     0          
O        O      0.117650000000     0.297950000000     0.279300000000     0          
O        O      0.161600000000     0.250000000000     0.240600000000     0          
O        O      0.182950000000     0.317050000000     0.252100000000     0          
O        O      0.048950000000     0.134400000000     0.408300000000     0          
O        O      0.067400000000     0.067400000000     0.427700000000     0          
O        O      0.000000000000     0.088000000000     0.438500000000     0          
O        O      0.049600000000     0.111200000000     0.500000000000     0          
O        O      0.159050000000     0.000000000000     0.346800000000     0          
O        O      0.182350000000     0.066750000000     0.341000000000     0          
O        O      0.178700000000     0.000000000000     0.187800000000     0          
O        O      0.199950000000     0.050050000000     0.250000000000     0          
T        Si     0.149100000000     0.291600000000     0.239300000000     0          
T        Si     0.041500000000     0.100250000000     0.443700000000     0          
T        Si     0.147900000000     0.041750000000     0.352800000000     0          
T        Si     0.173550000000     0.041400000000     0.204400000000     0          
O        O      0.198800000000     0.134100000000     0.185100000000     0          
O        O      0.202050000000     0.117650000000     0.279300000000     0          
O        O      0.250000000000     0.161600000000     0.240600000000     0          
O        O      0.182950000000     0.182950000000     0.252100000000     0          
O        O      0.365600000000     0.048950000000     0.408300000000     0          
O        O      0.432600000000     0.067400000000     0.427700000000     0          
O        O      0.412000000000     0.000000000000     0.438500000000     0          
O        O      0.388800000000     0.049600000000     0.500000000000     0          
O        O      0.000000000000     0.159050000000     0.346800000000     0          
O        O      0.433250000000     0.182350000000     0.341000000000     0          
O        O      0.000000000000     0.178700000000     0.187800000000     0          
O        O      0.449950000000     0.199950000000     0.250000000000     0          
T        Si     0.208400000000     0.149100000000     0.239300000000     0          
T        Si     0.399750000000     0.041500000000     0.443700000000     0          
T        Si     0.458250000000     0.147900000000     0.352800000000     0          
T        Si     0.458600000000     0.173550000000     0.204400000000     0          
O        O      0.365900000000     0.198800000000     0.185100000000     0          
O        O      0.382350000000     0.202050000000     0.279300000000     0          
O        O      0.338400000000     0.250000000000     0.240600000000     0          
O        O      0.317050000000     0.182950000000     0.252100000000     0          
O        O      0.451050000000     0.365600000000     0.408300000000     0          
O        O      0.432600000000     0.432600000000     0.427700000000     0          
O        O      0.000000000000     0.412000000000     0.438500000000     0          
O        O      0.450400000000     0.388800000000     0.500000000000     0          
O        O      0.340950000000     0.000000000000     0.346800000000     0          
O        O      0.317650000000     0.433250000000     0.341000000000     0          
O        O      0.321300000000     0.000000000000     0.187800000000     0          
O        O      0.300050000000     0.449950000000     0.250000000000     0          
T        Si     0.350900000000     0.208400000000     0.239300000000     0          
T        Si     0.458500000000     0.399750000000     0.443700000000     0          
T        Si     0.352100000000     0.458250000000     0.352800000000     0          
T        Si     0.326450000000     0.458600000000     0.204400000000     0          
O        O      0.301200000000     0.365900000000     0.185100000000     0          
O        O      0.297950000000     0.382350000000     0.279300000000     0          
O        O      0.250000000000     0.338400000000     0.240600000000     0          
O        O      0.317050000000     0.317050000000     0.252100000000     0          
O        O      0.134400000000     0.451050000000     0.408300000000     0          
O        O      0.067400000000     0.432600000000     0.427700000000     0          
O        O      0.088000000000     0.000000000000     0.438500000000     0          
O        O      0.111200000000     0.450400000000     0.500000000000     0          
O        O      0.000000000000     0.340950000000     0.346800000000     0          
O        O      0.066750000000     0.317650000000     0.341000000000     0          
O        O      0.000000000000     0.321300000000     0.187800000000     0          
O        O      0.050050000000     0.300050000000     0.250000000000     0          
T        Si     0.291600000000     0.350900000000     0.239300000000     0          
T        Si     0.100250000000     0.458500000000     0.443700000000     0          
T        Si     0.041750000000     0.352100000000     0.352800000000     0          
T        Si     0.041400000000     0.326450000000     0.204400000000     0          
O        O      0.134100000000     0.198800000000     0.814900000000     0          
O        O      0.117650000000     0.202050000000     0.720700000000     0          
O        O      0.161600000000     0.250000000000     0.759400000000     0          
O        O      0.182950000000     0.182950000000     0.747900000000     0          
O        O      0.048950000000     0.365600000000     0.591700000000     0          
O        O      0.067400000000     0.432600000000     0.572300000000     0          
O        O      0.000000000000     0.412000000000     0.561500000000     0          
O        O      0.049600000000     0.388800000000     0.500000000000     0          
O        O      0.159050000000     0.000000000000     0.653200000000     0          
O        O      0.182350000000     0.433250000000     0.659000000000     0          
O        O      0.178700000000     0.000000000000     0.812200000000     0          
O        O      0.199950000000     0.449950000000     0.750000000000     0          
T        Si     0.149100000000     0.208400000000     0.760700000000     0          
T        Si     0.041500000000     0.399750000000     0.556300000000     0          
T        Si     0.147900000000     0.458250000000     0.647200000000     0          
T        Si     0.173550000000     0.458600000000     0.795600000000     0          
O        O      0.301200000000     0.134100000000     0.814900000000     0          
O        O      0.297950000000     0.117650000000     0.720700000000     0          
O        O      0.250000000000     0.161600000000     0.759400000000     0          
O        O      0.317050000000     0.182950000000     0.747900000000     0          
O        O      0.134400000000     0.048950000000     0.591700000000     0          
O        O      0.067400000000     0.067400000000     0.572300000000     0          
O        O      0.088000000000     0.000000000000     0.561500000000     0          
O        O      0.111200000000     0.049600000000     0.500000000000     0          
O        O      0.000000000000     0.159050000000     0.653200000000     0          
O        O      0.066750000000     0.182350000000     0.659000000000     0          
O        O      0.000000000000     0.178700000000     0.812200000000     0          
O        O      0.050050000000     0.199950000000     0.750000000000     0          
T        Si     0.291600000000     0.149100000000     0.760700000000     0          
T        Si     0.100250000000     0.041500000000     0.556300000000     0          
T        Si     0.041750000000     0.147900000000     0.647200000000     0          
T        Si     0.041400000000     0.173550000000     0.795600000000     0          
O        O      0.365900000000     0.301200000000     0.814900000000     0          
O        O      0.382350000000     0.297950000000     0.720700000000     0          
O        O      0.338400000000     0.250000000000     0.759400000000     0          
O        O      0.317050000000     0.317050000000     0.747900000000     0          
O        O      0.451050000000     0.134400000000     0.591700000000     0          
O        O      0.432600000000     0.067400000000     0.572300000000     0          
O        O      0.000000000000     0.088000000000     0.561500000000     0          
O        O      0.450400000000     0.111200000000     0.500000000000     0          
O        O      0.340950000000     0.000000000000     0.653200000000     0          
O        O      0.317650000000     0.066750000000     0.659000000000     0          
O        O      0.321300000000     0.000000000000     0.812200000000     0          
O        O      0.300050000000     0.050050000000     0.750000000000     0          
T        Si     0.350900000000     0.291600000000     0.760700000000     0          
T        Si     0.458500000000     0.100250000000     0.556300000000     0          
T        Si     0.352100000000     0.041750000000     0.647200000000     0          
T        Si     0.326450000000     0.041400000000     0.795600000000     0          
O        O      0.198800000000     0.365900000000     0.814900000000     0          
O        O      0.202050000000     0.382350000000     0.720700000000     0          
O        O      0.250000000000     0.338400000000     0.759400000000     0          
O        O      0.182950000000     0.317050000000     0.747900000000     0          
O        O      0.365600000000     0.451050000000     0.591700000000     0          
O        O      0.432600000000     0.432600000000     0.572300000000     0          
O        O      0.412000000000     0.000000000000     0.561500000000     0          
O        O      0.388800000000     0.450400000000     0.500000000000     0          
O        O      0.000000000000     0.340950000000     0.653200000000     0          
O        O      0.433250000000     0.317650000000     0.659000000000     0          
O        O      0.000000000000     0.321300000000     0.812200000000     0          
O        O      0.449950000000     0.300050000000     0.750000000000     0          
T        Si     0.208400000000     0.350900000000     0.760700000000     0          
T        Si     0.399750000000     0.458500000000     0.556300000000     0          
T        Si     0.458250000000     0.352100000000     0.647200000000     0          
T        Si     0.458600000000     0.326450000000     0.795600000000     0          
O        O      0.365900000000     0.198800000000     0.814900000000     0          
O        O      0.382350000000     0.202050000000     0.720700000000     0          
O        O      0.451050000000     0.365600000000     0.591700000000     0          
O        O      0.317650000000     0.433250000000     0.659000000000     0          
O        O      0.300050000000     0.449950000000     0.750000000000     0          
T        Si     0.350900000000     0.208400000000     0.760700000000     0          
T        Si     0.458500000000     0.399750000000     0.556300000000     0          
T        Si     0.352100000000     0.458250000000     0.647200000000     0          
T        Si     0.326450000000     0.458600000000     0.795600000000     0          
O        O      0.301200000000     0.365900000000     0.814900000000     0          
O        O      0.297950000000     0.382350000000     0.720700000000     0          
O        O      0.134400000000     0.451050000000     0.591700000000     0          
O        O      0.066750000000     0.317650000000     0.659000000000     0          
O        O      0.050050000000     0.300050000000     0.750000000000     0          
T        Si     0.291600000000     0.350900000000     0.760700000000     0          
T        Si     0.100250000000     0.458500000000     0.556300000000     0          
T        Si     0.041750000000     0.352100000000     0.647200000000     0          
T        Si     0.041400000000     0.326450000000     0.795600000000     0          
O        O      0.134100000000     0.301200000000     0.814900000000     0          
O        O      0.117650000000     0.297950000000     0.720700000000     0          
O        O      0.048950000000     0.134400000000     0.591700000000     0          
O        O      0.182350000000     0.066750000000     0.659000000000     0          
O        O      0.199950000000     0.050050000000     0.750000000000     0          
T        Si     0.149100000000     0.291600000000     0.760700000000     0          
T        Si     0.041500000000     0.100250000000     0.556300000000     0          
T        Si     0.147900000000     0.041750000000     0.647200000000     0          
T        Si     0.173550000000     0.041400000000     0.795600000000     0          
O        O      0.198800000000     0.134100000000     0.814900000000     0          
O        O      0.202050000000     0.117650000000     0.720700000000     0          
O        O      0.365600000000     0.048950000000     0.591700000000     0          
O        O      0.433250000000     0.182350000000     0.659000000000     0          
O        O      0.449950000000     0.199950000000     0.750000000000     0          
T        Si     0.208400000000     0.149100000000     0.760700000000     0          
T        Si     0.399750000000     0.041500000000     0.556300000000     0          
T        Si     0.458250000000     0.147900000000     0.647200000000     0          
T        Si     0.458600000000     0.173550000000     0.795600000000     0          
O        O      0.365900000000     0.301200000000     0.185100000000     0          
O        O      0.382350000000     0.297950000000     0.279300000000     0          
O        O      0.451050000000     0.134400000000     0.408300000000     0          
O        O      0.317650000000     0.066750000000     0.341000000000     0          
O        O      0.300050000000     0.050050000000     0.250000000000     0          
T        Si     0.350900000000     0.291600000000     0.239300000000     0          
T        Si     0.458500000000     0.100250000000     0.443700000000     0          
T        Si     0.352100000000     0.041750000000     0.352800000000     0          
T        Si     0.326450000000     0.041400000000     0.204400000000     0          
O        O      0.198800000000     0.365900000000     0.185100000000     0          
O        O      0.202050000000     0.382350000000     0.279300000000     0          
O        O      0.365600000000     0.451050000000     0.408300000000     0          
O        O      0.433250000000     0.317650000000     0.341000000000     0          
O        O      0.449950000000     0.300050000000     0.250000000000     0          
T        Si     0.208400000000     0.350900000000     0.239300000000     0          
T        Si     0.399750000000     0.458500000000     0.443700000000     0          
T        Si     0.458250000000     0.352100000000     0.352800000000     0          
T        Si     0.458600000000     0.326450000000     0.204400000000     0          
O        O      0.134100000000     0.198800000000     0.185100000000     0          
O        O      0.117650000000     0.202050000000     0.279300000000     0          
O        O      0.048950000000     0.365600000000     0.408300000000     0          
O        O      0.182350000000     0.433250000000     0.341000000000     0          
O        O      0.199950000000     0.449950000000     0.250000000000     0          
T        Si     0.149100000000     0.208400000000     0.239300000000     0          
T        Si     0.041500000000     0.399750000000     0.443700000000     0          
T        Si     0.147900000000     0.458250000000     0.352800000000     0          
T        Si     0.173550000000     0.458600000000     0.204400000000     0          
O        O      0.301200000000     0.134100000000     0.185100000000     0          
O        O      0.297950000000     0.117650000000     0.279300000000     0          
O        O      0.134400000000     0.048950000000     0.408300000000     0          
O        O      0.066750000000     0.182350000000     0.341000000000     0          
O        O      0.050050000000     0.199950000000     0.250000000000     0          
T        Si     0.291600000000     0.149100000000     0.239300000000     0          
T        Si     0.100250000000     0.041500000000     0.443700000000     0          
T        Si     0.041750000000     0.147900000000     0.352800000000     0          
T        Si     0.041400000000     0.173550000000     0.204400000000     0          
O        O      0.384100000000     0.051200000000     0.685100000000     0          
O        O      0.367650000000     0.047950000000     0.779300000000     0          
O        O      0.411600000000     0.000000000000     0.740600000000     0          
O        O      0.432950000000     0.067050000000     0.752100000000     0          
O        O      0.298950000000     0.384400000000     0.908300000000     0          
O        O      0.317400000000     0.317400000000     0.927700000000     0          
O        O      0.250000000000     0.338000000000     0.938500000000     0          
O        O      0.299600000000     0.361200000000     0.000000000000     0          
O        O      0.409050000000     0.250000000000     0.846800000000     0          
O        O      0.432350000000     0.316750000000     0.841000000000     0          
O        O      0.428700000000     0.250000000000     0.687800000000     0          
T        Si     0.399100000000     0.041600000000     0.739300000000     0          
T        Si     0.291500000000     0.350250000000     0.943700000000     0          
T        Si     0.397900000000     0.291750000000     0.852800000000     0          
T        Si     0.423550000000     0.291400000000     0.704400000000     0          
O        O      0.448800000000     0.384100000000     0.685100000000     0          
O        O      0.452050000000     0.367650000000     0.779300000000     0          
O        O      0.000000000000     0.411600000000     0.740600000000     0          
O        O      0.432950000000     0.432950000000     0.752100000000     0          
O        O      0.115600000000     0.298950000000     0.908300000000     0          
O        O      0.182600000000     0.317400000000     0.927700000000     0          
O        O      0.162000000000     0.250000000000     0.938500000000     0          
O        O      0.138800000000     0.299600000000     0.000000000000     0          
O        O      0.250000000000     0.409050000000     0.846800000000     0          
O        O      0.183250000000     0.432350000000     0.841000000000     0          
O        O      0.250000000000     0.428700000000     0.687800000000     0          
T        Si     0.458400000000     0.399100000000     0.739300000000     0          
T        Si     0.149750000000     0.291500000000     0.943700000000     0          
T        Si     0.208250000000     0.397900000000     0.852800000000     0          
T        Si     0.208600000000     0.423550000000     0.704400000000     0          
O        O      0.115900000000     0.448800000000     0.685100000000     0          
O        O      0.132350000000     0.452050000000     0.779300000000     0          
O        O      0.088400000000     0.000000000000     0.740600000000     0          
O        O      0.067050000000     0.432950000000     0.752100000000     0          
O        O      0.201050000000     0.115600000000     0.908300000000     0          
O        O      0.182600000000     0.182600000000     0.927700000000     0          
O        O      0.250000000000     0.162000000000     0.938500000000     0          
O        O      0.200400000000     0.138800000000     0.000000000000     0          
O        O      0.090950000000     0.250000000000     0.846800000000     0          
O        O      0.067650000000     0.183250000000     0.841000000000     0          
O        O      0.071300000000     0.250000000000     0.687800000000     0          
T        Si     0.100900000000     0.458400000000     0.739300000000     0          
T        Si     0.208500000000     0.149750000000     0.943700000000     0          
T        Si     0.102100000000     0.208250000000     0.852800000000     0          
T        Si     0.076450000000     0.208600000000     0.704400000000     0          
O        O      0.051200000000     0.115900000000     0.685100000000     0          
O        O      0.047950000000     0.132350000000     0.779300000000     0          
O        O      0.000000000000     0.088400000000     0.740600000000     0          
O        O      0.067050000000     0.067050000000     0.752100000000     0          
O        O      0.384400000000     0.201050000000     0.908300000000     0          
O        O      0.317400000000     0.182600000000     0.927700000000     0          
O        O      0.338000000000     0.250000000000     0.938500000000     0          
O        O      0.361200000000     0.200400000000     0.000000000000     0          
O        O      0.250000000000     0.090950000000     0.846800000000     0          
O        O      0.316750000000     0.067650000000     0.841000000000     0          
O        O      0.250000000000     0.071300000000     0.687800000000     0          
T        Si     0.041600000000     0.100900000000     0.739300000000     0          
T        Si     0.350250000000     0.208500000000     0.943700000000     0          
T        Si     0.291750000000     0.102100000000     0.852800000000     0          
T        Si     0.291400000000     0.076450000000     0.704400000000     0          
O        O      0.384100000000     0.448800000000     0.314900000000     0          
O        O      0.367650000000     0.452050000000     0.220700000000     0          
O        O      0.411600000000     0.000000000000     0.259400000000     0          
O        O      0.432950000000     0.432950000000     0.247900000000     0          
O        O      0.298950000000     0.115600000000     0.091700000000     0          
O        O      0.317400000000     0.182600000000     0.072300000000     0          
O        O      0.250000000000     0.162000000000     0.061500000000     0          
O        O      0.299600000000     0.138800000000     0.000000000000     0          
O        O      0.409050000000     0.250000000000     0.153200000000     0          
O        O      0.432350000000     0.183250000000     0.159000000000     0          
O        O      0.428700000000     0.250000000000     0.312200000000     0          
T        Si     0.399100000000     0.458400000000     0.260700000000     0          
T        Si     0.291500000000     0.149750000000     0.056300000000     0          
T        Si     0.397900000000     0.208250000000     0.147200000000     0          
T        Si     0.423550000000     0.208600000000     0.295600000000     0          
O        O      0.051200000000     0.384100000000     0.314900000000     0          
O        O      0.047950000000     0.367650000000     0.220700000000     0          
O        O      0.000000000000     0.411600000000     0.259400000000     0          
O        O      0.067050000000     0.432950000000     0.247900000000     0          
O        O      0.384400000000     0.298950000000     0.091700000000     0          
O        O      0.317400000000     0.317400000000     0.072300000000     0          
O        O      0.338000000000     0.250000000000     0.061500000000     0          
O        O      0.361200000000     0.299600000000     0.000000000000     0          
O        O      0.250000000000     0.409050000000     0.153200000000     0          
O        O      0.316750000000     0.432350000000     0.159000000000     0          
O        O      0.250000000000     0.428700000000     0.312200000000     0          
T        Si     0.041600000000     0.399100000000     0.260700000000     0          
T        Si     0.350250000000     0.291500000000     0.056300000000     0          
T        Si     0.291750000000     0.397900000000     0.147200000000     0          
T        Si     0.291400000000     0.423550000000     0.295600000000     0          
O        O      0.115900000000     0.051200000000     0.314900000000     0          
O        O      0.132350000000     0.047950000000     0.220700000000     0          
O        O      0.088400000000     0.000000000000     0.259400000000     0          
O        O      0.067050000000     0.067050000000     0.247900000000     0          
O        O      0.201050000000     0.384400000000     0.091700000000     0          
O        O      0.182600000000     0.317400000000     0.072300000000     0          
O        O      0.250000000000     0.338000000000     0.061500000000     0          
O        O      0.200400000000     0.361200000000     0.000000000000     0          
O        O      0.090950000000     0.250000000000     0.153200000000     0          
O        O      0.067650000000     0.316750000000     0.159000000000     0          
O        O      0.071300000000     0.250000000000     0.312200000000     0          
T        Si     0.100900000000     0.041600000000     0.260700000000     0          
T        Si     0.208500000000     0.350250000000     0.056300000000     0          
T        Si     0.102100000000     0.291750000000     0.147200000000     0          
T        Si     0.076450000000     0.291400000000     0.295600000000     0          
O        O      0.448800000000     0.115900000000     0.314900000000     0          
O        O      0.452050000000     0.132350000000     0.220700000000     0          
O        O      0.000000000000     0.088400000000     0.259400000000     0          
O        O      0.432950000000     0.067050000000     0.247900000000     0          
O        O      0.115600000000     0.201050000000     0.091700000000     0          
O        O      0.182600000000     0.182600000000     0.072300000000     0          
O        O      0.162000000000     0.250000000000     0.061500000000     0          
O        O      0.138800000000     0.200400000000     0.000000000000     0          
O        O      0.250000000000     0.090950000000     0.153200000000     0          
O        O      0.183250000000     0.067650000000     0.159000000000     0          
O        O      0.250000000000     0.071300000000     0.312200000000     0          
T        Si     0.458400000000     0.100900000000     0.260700000000     0          
T        Si     0.149750000000     0.208500000000     0.056300000000     0          
T        Si     0.208250000000     0.102100000000     0.147200000000     0          
T        Si     0.208600000000     0.076450000000     0.295600000000     0          
O        O      0.115900000000     0.448800000000     0.314900000000     0          
O        O      0.132350000000     0.452050000000     0.220700000000     0          
O        O      0.201050000000     0.115600000000     0.091700000000     0          
O        O      0.067650000000     0.183250000000     0.159000000000     0          
T        Si     0.100900000000     0.458400000000     0.260700000000     0          
T        Si     0.208500000000     0.149750000000     0.056300000000     0          
T        Si     0.102100000000     0.208250000000     0.147200000000     0          
T        Si     0.076450000000     0.208600000000     0.295600000000     0          
O        O      0.051200000000     0.115900000000     0.314900000000     0          
O        O      0.047950000000     0.132350000000     0.220700000000     0          
O        O      0.384400000000     0.201050000000     0.091700000000     0          
O        O      0.316750000000     0.067650000000     0.159000000000     0          
T        Si     0.041600000000     0.100900000000     0.260700000000     0          
T        Si     0.350250000000     0.208500000000     0.056300000000     0          
T        Si     0.291750000000     0.102100000000     0.147200000000     0          
T        Si     0.291400000000     0.076450000000     0.295600000000     0          
O        O      0.384100000000     0.051200000000     0.314900000000     0          
O        O      0.367650000000     0.047950000000     0.220700000000     0          
O        O      0.298950000000     0.384400000000     0.091700000000     0          
O        O      0.432350000000     0.316750000000     0.159000000000     0          
T        Si     0.399100000000     0.041600000000     0.260700000000     0          
T        Si     0.291500000000     0.350250000000     0.056300000000     0          
T        Si     0.397900000000     0.291750000000     0.147200000000     0          
T        Si     0.423550000000     0.291400000000     0.295600000000     0          
O        O      0.448800000000     0.384100000000     0.314900000000     0          
O        O      0.452050000000     0.367650000000     0.220700000000     0          
O        O      0.115600000000     0.298950000000     0.091700000000     0          
O        O      0.183250000000     0.432350000000     0.159000000000     0          
T        Si     0.458400000000     0.399100000000     0.260700000000     0          
T        Si     0.149750000000     0.291500000000     0.056300000000     0          
T        Si     0.208250000000     0.397900000000     0.147200000000     0          
T        Si     0.208600000000     0.423550000000     0.295600000000     0          
O        O      0.115900000000     0.051200000000     0.685100000000     0          
O        O      0.132350000000     0.047950000000     0.779300000000     0          
O        O      0.201050000000     0.384400000000     0.908300000000     0          
O        O      0.067650000000     0.316750000000     0.841000000000     0          
T        Si     0.100900000000     0.041600000000     0.739300000000     0          
T        Si     0.208500000000     0.350250000000     0.943700000000     0          
T        Si     0.102100000000     0.291750000000     0.852800000000     0          
T        Si     0.076450000000     0.291400000000     0.704400000000     0          
O        O      0.448800000000     0.115900000000     0.685100000000     0          
O        O      0.452050000000     0.132350000000     0.779300000000     0          
O        O      0.115600000000     0.201050000000     0.908300000000     0          
O        O      0.183250000000     0.067650000000     0.841000000000     0          
T        Si     0.458400000000     0.100900000000     0.739300000000     0          
T        Si     0.149750000000     0.208500000000     0.943700000000     0          
T        Si     0.208250000000     0.102100000000     0.852800000000     0          
T        Si     0.208600000000     0.076450000000     0.704400000000     0          
O        O      0.384100000000     0.448800000000     0.685100000000     0          
O        O      0.367650000000     0.452050000000     0.779300000000     0          
O        O      0.298950000000     0.115600000000     0.908300000000     0          
O        O      0.432350000000     0.183250000000     0.841000000000     0          
T        Si     0.399100000000     0.458400000000     0.739300000000     0          
T        Si     0.291500000000     0.149750000000     0.943700000000     0          
T        Si     0.397900000000     0.208250000000     0.852800000000     0          
T        Si     0.423550000000     0.208600000000     0.704400000000     0          
O        O      0.051200000000     0.384100000000     0.685100000000     0          
O        O      0.047950000000     0.367650000000     0.779300000000     0          
O        O      0.384400000000     0.298950000000     0.908300000000     0          
O        O      0.316750000000     0.432350000000     0.841000000000     0          
T        Si     0.041600000000     0.399100000000     0.739300000000     0          
T        Si     0.350250000000     0.291500000000     0.943700000000     0          
T        Si     0.291750000000     0.397900000000     0.852800000000     0          
T        Si     0.291400000000     0.423550000000     0.704400000000     0          
O        O      0.134100000000     0.801200000000     0.185100000000     0          
O        O      0.117650000000     0.797950000000     0.279300000000     0          
O        O      0.161600000000     0.750000000000     0.240600000000     0          
O        O      0.182950000000     0.817050000000     0.252100000000     0          
O        O      0.048950000000     0.634400000000     0.408300000000     0          
O        O      0.067400000000     0.567400000000     0.427700000000     0          
O        O      0.000000000000     0.588000000000     0.438500000000     0          
O        O      0.049600000000     0.611200000000     0.500000000000     0          
O        O      0.159050000000     0.500000000000     0.346800000000     0          
O        O      0.182350000000     0.566750000000     0.341000000000     0          
O        O      0.178700000000     0.500000000000     0.187800000000     0          
O        O      0.199950000000     0.550050000000     0.250000000000     0          
T        Si     0.149100000000     0.791600000000     0.239300000000     0          
T        Si     0.041500000000     0.600250000000     0.443700000000     0          
T        Si     0.147900000000     0.541750000000     0.352800000000     0          
T        Si     0.173550000000     0.541400000000     0.204400000000     0          
O        O      0.198800000000     0.634100000000     0.185100000000     0          
O        O      0.202050000000     0.617650000000     0.279300000000     0          
O        O      0.250000000000     0.661600000000     0.240600000000     0          
O        O      0.182950000000     0.682950000000     0.252100000000     0          
O        O      0.365600000000     0.548950000000     0.408300000000     0          
O        O      0.432600000000     0.567400000000     0.427700000000     0          
O        O      0.412000000000     0.500000000000     0.438500000000     0          
O        O      0.388800000000     0.549600000000     0.500000000000     0          
O        O      0.000000000000     0.659050000000     0.346800000000     0          
O        O      0.433250000000     0.682350000000     0.341000000000     0          
O        O      0.000000000000     0.678700000000     0.187800000000     0          
O        O      0.449950000000     0.699950000000     0.250000000000     0          
T        Si     0.208400000000     0.649100000000     0.239300000000     0          
T        Si     0.399750000000     0.541500000000     0.443700000000     0          
T        Si     0.458250000000     0.647900000000     0.352800000000     0          
T        Si     0.458600000000     0.673550000000     0.204400000000     0          
O        O      0.365900000000     0.698800000000     0.185100000000     0          
O        O      0.382350000000     0.702050000000     0.279300000000     0          
O        O      0.338400000000     0.750000000000     0.240600000000     0          
O        O      0.317050000000     0.682950000000     0.252100000000     0          
O        O      0.451050000000     0.865600000000     0.408300000000     0          
O        O      0.432600000000     0.932600000000     0.427700000000     0          
O        O      0.000000000000     0.912000000000     0.438500000000     0          
O        O      0.450400000000     0.888800000000     0.500000000000     0          
O        O      0.340950000000     0.500000000000     0.346800000000     0          
O        O      0.317650000000     0.933250000000     0.341000000000     0          
O        O      0.321300000000     0.500000000000     0.187800000000     0          
O        O      0.300050000000     0.949950000000     0.250000000000     0          
T        Si     0.350900000000     0.708400000000     0.239300000000     0          
T        Si     0.458500000000     0.899750000000     0.443700000000     0          
T        Si     0.352100000000     0.958250000000     0.352800000000     0          
T        Si     0.326450000000     0.958600000000     0.204400000000     0          
O        O      0.301200000000     0.865900000000     0.185100000000     0          
O        O      0.297950000000     0.882350000000     0.279300000000     0          
O        O      0.250000000000     0.838400000000     0.240600000000     0          
O        O      0.317050000000     0.817050000000     0.252100000000     0          
O        O      0.134400000000     0.951050000000     0.408300000000     0          
O        O      0.067400000000     0.932600000000     0.427700000000     0          
O        O      0.088000000000     0.500000000000     0.438500000000     0          
O        O      0.111200000000     0.950400000000     0.500000000000     0          
O        O      0.000000000000     0.840950000000     0.346800000000     0          
O        O      0.066750000000     0.817650000000     0.341000000000     0          
O        O      0.000000000000     0.821300000000     0.187800000000     0          
O        O      0.050050000000     0.800050000000     0.250000000000     0          
T        Si     0.291600000000     0.850900000000     0.239300000000     0          
T        Si     0.100250000000     0.958500000000     0.443700000000     0          
T        Si     0.041750000000     0.852100000000     0.352800000000     0          
T        Si     0.041400000000     0.826450000000     0.204400000000     0          
O        O      0.134100000000     0.698800000000     0.814900000000     0          
O        O      0.117650000000     0.702050000000     0.720700000000     0          
O        O      0.161600000000     0.750000000000     0.759400000000     0          
O        O      0.182950000000     0.682950000000     0.747900000000     0          
O        O      0.048950000000     0.865600000000     0.591700000000     0          
O        O      0.067400000000     0.932600000000     0.572300000000     0          
O        O      0.000000000000     0.912000000000     0.561500000000     0          
O        O      0.049600000000     0.888800000000     0.500000000000     0          
O        O      0.159050000000     0.500000000000     0.653200000000     0          
O        O      0.182350000000     0.933250000000     0.659000000000     0          
O        O      0.178700000000     0.500000000000     0.812200000000     0          
O        O      0.199950000000     0.949950000000     0.750000000000     0          
T        Si     0.149100000000     0.708400000000     0.760700000000     0          
T        Si     0.041500000000     0.899750000000     0.556300000000     0          
T        Si     0.147900000000     0.958250000000     0.647200000000     0          
T        Si     0.173550000000     0.958600000000     0.795600000000     0          
O        O      0.301200000000     0.634100000000     0.814900000000     0          
O        O      0.297950000000     0.617650000000     0.720700000000     0          
O        O      0.250000000000     0.661600000000     0.759400000000     0          
O        O      0.317050000000     0.682950000000     0.747900000000     0          
O        O      0.134400000000     0.548950000000     0.591700000000     0          
O        O      0.067400000000     0.567400000000     0.572300000000     0          
O        O      0.088000000000     0.500000000000     0.561500000000     0          
O        O      0.111200000000     0.549600000000     0.500000000000     0          
O        O      0.000000000000     0.659050000000     0.653200000000     0          
O        O      0.066750000000     0.682350000000     0.659000000000     0          
O        O      0.000000000000     0.678700000000     0.812200000000     0          
O        O      0.050050000000     0.699950000000     0.750000000000     0          
T        Si     0.291600000000     0.649100000000     0.760700000000     0          
T        Si     0.100250000000     0.541500000000     0.556300000000     0          
T        Si     0.041750000000     0.647900000000     0.647200000000     0          
T        Si     0.041400000000     0.673550000000     0.795600000000     0          
O        O      0.365900000000     0.801200000000     0.814900000000     0          
O        O      0.382350000000     0.797950000000     0.720700000000     0          
O        O      0.338400000000     0.750000000000     0.759400000000     0          
O        O      0.317050000000     0.817050000000     0.747900000000     0          
O        O      0.451050000000     0.634400000000     0.591700000000     0          
O        O      0.432600000000     0.567400000000     0.572300000000     0          
O        O      0.000000000000     0.588000000000     0.561500000000     0          
O        O      0.450400000000     0.611200000000     0.500000000000     0          
O        O      0.340950000000     0.500000000000     0.653200000000     0          
O        O      0.317650000000     0.566750000000     0.659000000000     0          
O        O      0.321300000000     0.500000000000     0.812200000000     0          
O        O      0.300050000000     0.550050000000     0.750000000000     0          
T        Si     0.350900000000     0.791600000000     0.760700000000     0          
T        Si     0.458500000000     0.600250000000     0.556300000000     0          
T        Si     0.352100000000     0.541750000000     0.647200000000     0          
T        Si     0.326450000000     0.541400000000     0.795600000000     0          
O        O      0.198800000000     0.865900000000     0.814900000000     0          
O        O      0.202050000000     0.882350000000     0.720700000000     0          
O        O      0.250000000000     0.838400000000     0.759400000000     0          
O        O      0.182950000000     0.817050000000     0.747900000000     0          
O        O      0.365600000000     0.951050000000     0.591700000000     0          
O        O      0.432600000000     0.932600000000     0.572300000000     0          
O        O      0.412000000000     0.500000000000     0.561500000000     0          
O        O      0.388800000000     0.950400000000     0.500000000000     0          
O        O      0.000000000000     0.840950000000     0.653200000000     0          
O        O      0.433250000000     0.817650000000     0.659000000000     0          
O        O      0.000000000000     0.821300000000     0.812200000000     0          
O        O      0.449950000000     0.800050000000     0.750000000000     0          
T        Si     0.208400000000     0.850900000000     0.760700000000     0          
T        Si     0.399750000000     0.958500000000     0.556300000000     0          
T        Si     0.458250000000     0.852100000000     0.647200000000     0          
T        Si     0.458600000000     0.826450000000     0.795600000000     0          
O        O      0.365900000000     0.698800000000     0.814900000000     0          
O        O      0.382350000000     0.702050000000     0.720700000000     0          
O        O      0.451050000000     0.865600000000     0.591700000000     0          
O        O      0.317650000000     0.933250000000     0.659000000000     0          
O        O      0.300050000000     0.949950000000     0.750000000000     0          
T        Si     0.350900000000     0.708400000000     0.760700000000     0          
T        Si     0.458500000000     0.899750000000     0.556300000000     0          
T        Si     0.352100000000     0.958250000000     0.647200000000     0          
T        Si     0.326450000000     0.958600000000     0.795600000000     0          
O        O      0.301200000000     0.865900000000     0.814900000000     0          
O        O      0.297950000000     0.882350000000     0.720700000000     0          
O        O      0.134400000000     0.951050000000     0.591700000000     0          
O        O      0.066750000000     0.817650000000     0.659000000000     0          
O        O      0.050050000000     0.800050000000     0.750000000000     0          
T        Si     0.291600000000     0.850900000000     0.760700000000     0          
T        Si     0.100250000000     0.958500000000     0.556300000000     0          
T        Si     0.041750000000     0.852100000000     0.647200000000     0          
T        Si     0.041400000000     0.826450000000     0.795600000000     0          
O        O      0.134100000000     0.801200000000     0.814900000000     0          
O        O      0.117650000000     0.797950000000     0.720700000000     0          
O        O      0.048950000000     0.634400000000     0.591700000000     0          
O        O      0.182350000000     0.566750000000     0.659000000000     0          
O        O      0.199950000000     0.550050000000     0.750000000000     0          
T        Si     0.149100000000     0.791600000000     0.760700000000     0          
T        Si     0.041500000000     0.600250000000     0.556300000000     0          
T        Si     0.147900000000     0.541750000000     0.647200000000     0          
T        Si     0.173550000000     0.541400000000     0.795600000000     0          
O        O      0.198800000000     0.634100000000     0.814900000000     0          
O        O      0.202050000000     0.617650000000     0.720700000000     0          
O        O      0.365600000000     0.548950000000     0.591700000000     0          
O        O      0.433250000000     0.682350000000     0.659000000000     0          
O        O      0.449950000000     0.699950000000     0.750000000000     0          
T        Si     0.208400000000     0.649100000000     0.760700000000     0          
T        Si     0.399750000000     0.541500000000     0.556300000000     0          
T        Si     0.458250000000     0.647900000000     0.647200000000     0          
T        Si     0.458600000000     0.673550000000     0.795600000000     0          
O        O      0.365900000000     0.801200000000     0.185100000000     0          
O        O      0.382350000000     0.797950000000     0.279300000000     0          
O        O      0.451050000000     0.634400000000     0.408300000000     0          
O        O      0.317650000000     0.566750000000     0.341000000000     0          
O        O      0.300050000000     0.550050000000     0.250000000000     0          
T        Si     0.350900000000     0.791600000000     0.239300000000     0          
T        Si     0.458500000000     0.600250000000     0.443700000000     0          
T        Si     0.352100000000     0.541750000000     0.352800000000     0          
T        Si     0.326450000000     0.541400000000     0.204400000000     0          
O        O      0.198800000000     0.865900000000     0.185100000000     0          
O        O      0.202050000000     0.882350000000     0.279300000000     0          
O        O      0.365600000000     0.951050000000     0.408300000000     0          
O        O      0.433250000000     0.817650000000     0.341000000000     0          
O        O      0.449950000000     0.800050000000     0.250000000000     0          
T        Si     0.208400000000     0.850900000000     0.239300000000     0          
T        Si     0.399750000000     0.958500000000     0.443700000000     0          
T        Si     0.458250000000     0.852100000000     0.352800000000     0          
T        Si     0.458600000000     0.826450000000     0.204400000000     0          
O        O      0.134100000000     0.698800000000     0.185100000000     0          
O        O      0.117650000000     0.702050000000     0.279300000000     0          
O        O      0.048950000000     0.865600000000     0.408300000000     0          
O        O      0.182350000000     0.933250000000     0.341000000000     0          
O        O      0.199950000000     0.949950000000     0.250000000000     0          
T        Si     0.149100000000     0.708400000000     0.239300000000     0          
T        Si     0.041500000000     0.899750000000     0.443700000000     0          
T        Si     0.147900000000     0.958250000000     0.352800000000     0          
T        Si     0.173550000000     0.958600000000     0.204400000000     0          
O        O      0.301200000000     0.634100000000     0.185100000000     0          
O        O      0.297950000000     0.617650000000     0.279300000000     0          
O        O      0.134400000000     0.548950000000     0.408300000000     0          
O        O      0.066750000000     0.682350000000     0.341000000000     0          
O        O      0.050050000000     0.699950000000     0.250000000000     0          
T        Si     0.291600000000     0.649100000000     0.239300000000     0          
T        Si     0.100250000000     0.541500000000     0.443700000000     0          
T        Si     0.041750000000     0.647900000000     0.352800000000     0          
T        Si     0.041400000000     0.673550000000     0.204400000000     0          
O        O      0.384100000000     0.551200000000     0.685100000000     0          
O        O      0.367650000000     0.547950000000     0.779300000000     0          
O        O      0.411600000000     0.500000000000     0.740600000000     0          
O        O      0.432950000000     0.567050000000     0.752100000000     0          
O        O      0.298950000000     0.884400000000     0.908300000000     0          
O        O      0.317400000000     0.817400000000     0.927700000000     0          
O        O      0.250000000000     0.838000000000     0.938500000000     0          
O        O      0.299600000000     0.861200000000     0.000000000000     0          
O        O      0.409050000000     0.750000000000     0.846800000000     0          
O        O      0.432350000000     0.816750000000     0.841000000000     0          
O        O      0.428700000000     0.750000000000     0.687800000000     0          
T        Si     0.399100000000     0.541600000000     0.739300000000     0          
T        Si     0.291500000000     0.850250000000     0.943700000000     0          
T        Si     0.397900000000     0.791750000000     0.852800000000     0          
T        Si     0.423550000000     0.791400000000     0.704400000000     0          
O        O      0.448800000000     0.884100000000     0.685100000000     0          
O        O      0.452050000000     0.867650000000     0.779300000000     0          
O        O      0.000000000000     0.911600000000     0.740600000000     0          
O        O      0.432950000000     0.932950000000     0.752100000000     0          
O        O      0.115600000000     0.798950000000     0.908300000000     0          
O        O      0.182600000000     0.817400000000     0.927700000000     0          
O        O      0.162000000000     0.750000000000     0.938500000000     0          
O        O      0.138800000000     0.799600000000     0.000000000000     0          
O        O      0.250000000000     0.909050000000     0.846800000000     0          
O        O      0.183250000000     0.932350000000     0.841000000000     0          
O        O      0.250000000000     0.928700000000     0.687800000000     0          
T        Si     0.458400000000     0.899100000000     0.739300000000     0          
T        Si     0.149750000000     0.791500000000     0.943700000000     0          
T        Si     0.208250000000     0.897900000000     0.852800000000     0          
T        Si     0.208600000000     0.923550000000     0.704400000000     0          
O        O      0.115900000000     0.948800000000     0.685100000000     0          
O        O      0.132350000000     0.952050000000     0.779300000000     0          
O        O      0.088400000000     0.500000000000     0.740600000000     0          
O        O      0.067050000000     0.932950000000     0.752100000000     0          
O        O      0.201050000000     0.615600000000     0.908300000000     0          
O        O      0.182600000000     0.682600000000     0.927700000000     0          
O        O      0.250000000000     0.662000000000     0.938500000000     0          
O        O      0.200400000000     0.638800000000     0.000000000000     0          
O        O      0.090950000000     0.750000000000     0.846800000000     0          
O        O      0.067650000000     0.683250000000     0.841000000000     0          
O        O      0.071300000000     0.750000000000     0.687800000000     0          
T        Si     0.100900000000     0.958400000000     0.739300000000     0          
T        Si     0.208500000000     0.649750000000     0.943700000000     0          
T        Si     0.102100000000     0.708250000000     0.852800000000     0          
T        Si     0.076450000000     0.708600000000     0.704400000000     0          
O        O      0.051200000000     0.615900000000     0.685100000000     0          
O        O      0.047950000000     0.632350000000     0.779300000000     0          
O        O      0.000000000000     0.588400000000     0.740600000000     0          
O        O      0.067050000000     0.567050000000     0.752100000000     0          
O        O      0.384400000000     0.701050000000     0.908300000000     0          
O        O      0.317400000000     0.682600000000     0.927700000000     0          
O        O      0.338000000000     0.750000000000     0.938500000000     0          
O        O      0.361200000000     0.700400000000     0.000000000000     0          
O        O      0.250000000000     0.590950000000     0.846800000000     0          
O        O      0.316750000000     0.567650000000     0.841000000000     0          
O        O      0.250000000000     0.571300000000     0.687800000000     0          
T        Si     0.041600000000     0.600900000000     0.739300000000     0          
T        Si     0.350250000000     0.708500000000     0.943700000000     0          
T        Si     0.291750000000     0.602100000000     0.852800000000     0          
T        Si     0.291400000000     0.576450000000     0.704400000000     0          
O        O      0.384100000000     0.948800000000     0.314900000000     0          
O        O      0.367650000000     0.952050000000     0.220700000000     0          
O        O      0.411600000000     0.500000000000     0.259400000000     0          
O        O      0.432950000000     0.932950000000     0.247900000000     0          
O        O      0.298950000000     0.615600000000     0.091700000000     0          
O        O      0.317400000000     0.682600000000     0.072300000000     0          
O        O      0.250000000000     0.662000000000     0.061500000000     0          
O        O      0.299600000000     0.638800000000     0.000000000000     0          
O        O      0.409050000000     0.750000000000     0.153200000000     0          
O        O      0.432350000000     0.683250000000     0.159000000000     0          
O        O      0.428700000000     0.750000000000     0.312200000000     0          
T        Si     0.399100000000     0.958400000000     0.260700000000     0          
T        Si     0.291500000000     0.649750000000     0.056300000000     0          
T        Si     0.397900000000     0.708250000000     0.147200000000     0          
T        Si     0.423550000000     0.708600000000     0.295600000000     0          
O        O      0.051200000000     0.884100000000     0.314900000000     0          
O        O      0.047950000000     0.867650000000     0.220700000000     0          
O        O      0.000000000000     0.911600000000     0.259400000000     0          
O        O      0.067050000000     0.932950000000     0.247900000000     0          
O        O      0.384400000000     0.798950000000     0.091700000000     0          
O        O      0.317400000000     0.817400000000     0.072300000000     0          
O        O      0.338000000000     0.750000000000     0.061500000000     0          
O        O      0.361200000000     0.799600000000     0.000000000000     0          
O        O      0.250000000000     0.909050000000     0.153200000000     0          
O        O      0.316750000000     0.932350000000     0.159000000000     0          
O        O      0.250000000000     0.928700000000     0.312200000000     0          
T        Si     0.041600000000     0.899100000000     0.260700000000     0          
T        Si     0.350250000000     0.791500000000     0.056300000000     0          
T        Si     0.291750000000     0.897900000000     0.147200000000     0          
T        Si     0.291400000000     0.923550000000     0.295600000000     0          
O        O      0.115900000000     0.551200000000     0.314900000000     0          
O        O      0.132350000000     0.547950000000     0.220700000000     0          
O        O      0.088400000000     0.500000000000     0.259400000000     0          
O        O      0.067050000000     0.567050000000     0.247900000000     0          
O        O      0.201050000000     0.884400000000     0.091700000000     0          
O        O      0.182600000000     0.817400000000     0.072300000000     0          
O        O      0.250000000000     0.838000000000     0.061500000000     0          
O        O      0.200400000000     0.861200000000     0.000000000000     0          
O        O      0.090950000000     0.750000000000     0.153200000000     0          
O        O      0.067650000000     0.816750000000     0.159000000000     0          
O        O      0.071300000000     0.750000000000     0.312200000000     0          
T        Si     0.100900000000     0.541600000000     0.260700000000     0          
T        Si     0.208500000000     0.850250000000     0.056300000000     0          
T        Si     0.102100000000     0.791750000000     0.147200000000     0          
T        Si     0.076450000000     0.791400000000     0.295600000000     0          
O        O      0.448800000000     0.615900000000     0.314900000000     0          
O        O      0.452050000000     0.632350000000     0.220700000000     0          
O        O      0.000000000000     0.588400000000     0.259400000000     0          
O        O      0.432950000000     0.567050000000     0.247900000000     0          
O        O      0.115600000000     0.701050000000     0.091700000000     0          
O        O      0.182600000000     0.682600000000     0.072300000000     0          
O        O      0.162000000000     0.750000000000     0.061500000000     0          
O        O      0.138800000000     0.700400000000     0.000000000000     0          
O        O      0.250000000000     0.590950000000     0.153200000000     0          
O        O      0.183250000000     0.567650000000     0.159000000000     0          
O        O      0.250000000000     0.571300000000     0.312200000000     0          
T        Si     0.458400000000     0.600900000000     0.260700000000     0          
T        Si     0.149750000000     0.708500000000     0.056300000000     0          
T        Si     0.208250000000     0.602100000000     0.147200000000     0          
T        Si     0.208600000000     0.576450000000     0.295600000000     0          
O        O      0.115900000000     0.948800000000     0.314900000000     0          
O        O      0.132350000000     0.952050000000     0.220700000000     0          
O        O      0.201050000000     0.615600000000     0.091700000000     0          
O        O      0.067650000000     0.683250000000     0.159000000000     0          
T        Si     0.100900000000     0.958400000000     0.260700000000     0          
T        Si     0.208500000000     0.649750000000     0.056300000000     0          
T        Si     0.102100000000     0.708250000000     0.147200000000     0          
T        Si     0.076450000000     0.708600000000     0.295600000000     0          
O        O      0.051200000000     0.615900000000     0.314900000000     0          
O        O      0.047950000000     0.632350000000     0.220700000000     0          
O        O      0.384400000000     0.701050000000     0.091700000000     0          
O        O      0.316750000000     0.567650000000     0.159000000000     0          
T        Si     0.041600000000     0.600900000000     0.260700000000     0          
T        Si     0.350250000000     0.708500000000     0.056300000000     0          
T        Si     0.291750000000     0.602100000000     0.147200000000     0          
T        Si     0.291400000000     0.576450000000     0.295600000000     0          
O        O      0.384100000000     0.551200000000     0.314900000000     0          
O        O      0.367650000000     0.547950000000     0.220700000000     0          
O        O      0.298950000000     0.884400000000     0.091700000000     0          
O        O      0.432350000000     0.816750000000     0.159000000000     0          
T        Si     0.399100000000     0.541600000000     0.260700000000     0          
T        Si     0.291500000000     0.850250000000     0.056300000000     0          
T        Si     0.397900000000     0.791750000000     0.147200000000     0          
T        Si     0.423550000000     0.791400000000     0.295600000000     0          
O        O      0.448800000000     0.884100000000     0.314900000000     0          
O        O      0.452050000000     0.867650000000     0.220700000000     0          
O        O      0.115600000000     0.798950000000     0.091700000000     0          
O        O      0.183250000000     0.932350000000     0.159000000000     0          
T        Si     0.458400000000     0.899100000000     0.260700000000     0          
T        Si     0.149750000000     0.791500000000     0.056300000000     0          
T        Si     0.208250000000     0.897900000000     0.147200000000     0          
T        Si     0.208600000000     0.923550000000     0.295600000000     0          
O        O      0.115900000000     0.551200000000     0.685100000000     0          
O        O      0.132350000000     0.547950000000     0.779300000000     0          
O        O      0.201050000000     0.884400000000     0.908300000000     0          
O        O      0.067650000000     0.816750000000     0.841000000000     0          
T        Si     0.100900000000     0.541600000000     0.739300000000     0          
T        Si     0.208500000000     0.850250000000     0.943700000000     0          
T        Si     0.102100000000     0.791750000000     0.852800000000     0          
T        Si     0.076450000000     0.791400000000     0.704400000000     0          
O        O      0.448800000000     0.615900000000     0.685100000000     0          
O        O      0.452050000000     0.632350000000     0.779300000000     0          
O        O      0.115600000000     0.701050000000     0.908300000000     0          
O        O      0.183250000000     0.567650000000     0.841000000000     0          
T        Si     0.458400000000     0.600900000000     0.739300000000     0          
T        Si     0.149750000000     0.708500000000     0.943700000000     0          
T        Si     0.208250000000     0.602100000000     0.852800000000     0          
T        Si     0.208600000000     0.576450000000     0.704400000000     0          
O        O      0.384100000000     0.948800000000     0.685100000000     0          
O        O      0.367650000000     0.952050000000     0.779300000000     0          
O        O      0.298950000000     0.615600000000     0.908300000000     0          
O        O      0.432350000000     0.683250000000     0.841000000000     0          
T        Si     0.399100000000     0.958400000000     0.739300000000     0          
T        Si     0.291500000000     0.649750000000     0.943700000000     0          
T        Si     0.397900000000     0.708250000000     0.852800000000     0          
T        Si     0.423550000000     0.708600000000     0.704400000000     0          
O        O      0.051200000000     0.884100000000     0.685100000000     0          
O        O      0.047950000000     0.867650000000     0.779300000000     0          
O        O      0.384400000000     0.798950000000     0.908300000000     0          
O        O      0.316750000000     0.932350000000     0.841000000000     0          
T        Si     0.041600000000     0.899100000000     0.739300000000     0          
T        Si     0.350250000000     0.791500000000     0.943700000000     0          
T        Si     0.291750000000     0.897900000000     0.852800000000     0          
T        Si     0.291400000000     0.923550000000     0.704400000000     0          
O        O      0.634100000000     0.301200000000     0.185100000000     0          
O        O      0.617650000000     0.297950000000     0.279300000000     0          
O        O      0.661600000000     0.250000000000     0.240600000000     0          
O        O      0.682950000000     0.317050000000     0.252100000000     0          
O        O      0.548950000000     0.134400000000     0.408300000000     0          
O        O      0.567400000000     0.067400000000     0.427700000000     0          
O        O      0.500000000000     0.088000000000     0.438500000000     0          
O        O      0.549600000000     0.111200000000     0.500000000000     0          
O        O      0.659050000000     0.000000000000     0.346800000000     0          
O        O      0.682350000000     0.066750000000     0.341000000000     0          
O        O      0.678700000000     0.000000000000     0.187800000000     0          
O        O      0.699950000000     0.050050000000     0.250000000000     0          
T        Si     0.649100000000     0.291600000000     0.239300000000     0          
T        Si     0.541500000000     0.100250000000     0.443700000000     0          
T        Si     0.647900000000     0.041750000000     0.352800000000     0          
T        Si     0.673550000000     0.041400000000     0.204400000000     0          
O        O      0.698800000000     0.134100000000     0.185100000000     0          
O        O      0.702050000000     0.117650000000     0.279300000000     0          
O        O      0.750000000000     0.161600000000     0.240600000000     0          
O        O      0.682950000000     0.182950000000     0.252100000000     0          
O        O      0.865600000000     0.048950000000     0.408300000000     0          
O        O      0.932600000000     0.067400000000     0.427700000000     0          
O        O      0.912000000000     0.000000000000     0.438500000000     0          
O        O      0.888800000000     0.049600000000     0.500000000000     0          
O        O      0.500000000000     0.159050000000     0.346800000000     0          
O        O      0.933250000000     0.182350000000     0.341000000000     0          
O        O      0.500000000000     0.178700000000     0.187800000000     0          
O        O      0.949950000000     0.199950000000     0.250000000000     0          
T        Si     0.708400000000     0.149100000000     0.239300000000     0          
T        Si     0.899750000000     0.041500000000     0.443700000000     0          
T        Si     0.958250000000     0.147900000000     0.352800000000     0          
T        Si     0.958600000000     0.173550000000     0.204400000000     0          
O        O      0.865900000000     0.198800000000     0.185100000000     0          
O        O      0.882350000000     0.202050000000     0.279300000000     0          
O        O      0.838400000000     0.250000000000     0.240600000000     0          
O        O      0.817050000000     0.182950000000     0.252100000000     0          
O        O      0.951050000000     0.365600000000     0.408300000000     0          
O        O      0.932600000000     0.432600000000     0.427700000000     0          
O        O      0.500000000000     0.412000000000     0.438500000000     0          
O        O      0.950400000000     0.388800000000     0.500000000000     0          
O        O      0.840950000000     0.000000000000     0.346800000000     0          
O        O      0.817650000000     0.433250000000     0.341000000000     0          
O        O      0.821300000000     0.000000000000     0.187800000000     0          
O        O      0.800050000000     0.449950000000     0.250000000000     0          
T        Si     0.850900000000     0.208400000000     0.239300000000     0          
T        Si     0.958500000000     0.399750000000     0.443700000000     0          
T        Si     0.852100000000     0.458250000000     0.352800000000     0          
T        Si     0.826450000000     0.458600000000     0.204400000000     0          
O        O      0.801200000000     0.365900000000     0.185100000000     0          
O        O      0.797950000000     0.382350000000     0.279300000000     0          
O        O      0.750000000000     0.338400000000     0.240600000000     0          
O        O      0.817050000000     0.317050000000     0.252100000000     0          
O        O      0.634400000000     0.451050000000     0.408300000000     0          
O        O      0.567400000000     0.432600000000     0.427700000000     0          
O        O      0.588000000000     0.000000000000     0.438500000000     0          
O        O      0.611200000000     0.450400000000     0.500000000000     0          
O        O      0.500000000000     0.340950000000     0.346800000000     0          
O        O      0.566750000000     0.317650000000     0.341000000000     0          
O        O      0.500000000000     0.321300000000     0.187800000000     0          
O        O      0.550050000000     0.300050000000     0.250000000000     0          
T        Si     0.791600000000     0.350900000000     0.239300000000     0          
T        Si     0.600250000000     0.458500000000     0.443700000000     0          
T        Si     0.541750000000     0.352100000000     0.352800000000     0          
T        Si     0.541400000000     0.326450000000     0.204400000000     0          
O        O      0.634100000000     0.198800000000     0.814900000000     0          
O        O      0.617650000000     0.202050000000     0.720700000000     0          
O        O      0.661600000000     0.250000000000     0.759400000000     0          
O        O      0.682950000000     0.182950000000     0.747900000000     0          
O        O      0.548950000000     0.365600000000     0.591700000000     0          
O        O      0.567400000000     0.432600000000     0.572300000000     0          
O        O      0.500000000000     0.412000000000     0.561500000000     0          
O        O      0.549600000000     0.388800000000     0.500000000000     0          
O        O      0.659050000000     0.000000000000     0.653200000000     0          
O        O      0.682350000000     0.433250000000     0.659000000000     0          
O        O      0.678700000000     0.000000000000     0.812200000000     0          
O        O      0.699950000000     0.449950000000     0.750000000000     0          
T        Si     0.649100000000     0.208400000000     0.760700000000     0          
T        Si     0.541500000000     0.399750000000     0.556300000000     0          
T        Si     0.647900000000     0.458250000000     0.647200000000     0          
T        Si     0.673550000000     0.458600000000     0.795600000000     0          
O        O      0.801200000000     0.134100000000     0.814900000000     0          
O        O      0.797950000000     0.117650000000     0.720700000000     0          
O        O      0.750000000000     0.161600000000     0.759400000000     0          
O        O      0.817050000000     0.182950000000     0.747900000000     0          
O        O      0.634400000000     0.048950000000     0.591700000000     0          
O        O      0.567400000000     0.067400000000     0.572300000000     0          
O        O      0.588000000000     0.000000000000     0.561500000000     0          
O        O      0.611200000000     0.049600000000     0.500000000000     0          
O        O      0.500000000000     0.159050000000     0.653200000000     0          
O        O      0.566750000000     0.182350000000     0.659000000000     0          
O        O      0.500000000000     0.178700000000     0.812200000000     0          
O        O      0.550050000000     0.199950000000     0.750000000000     0          
T        Si     0.791600000000     0.149100000000     0.760700000000     0          
T        Si     0.600250000000     0.041500000000     0.556300000000     0          
T        Si     0.541750000000     0.147900000000     0.647200000000     0          
T        Si     0.541400000000     0.173550000000     0.795600000000     0          
O        O      0.865900000000     0.301200000000     0.814900000000     0          
O        O      0.882350000000     0.297950000000     0.720700000000     0          
O        O      0.838400000000     0.250000000000     0.759400000000     0          
O        O      0.817050000000     0.317050000000     0.747900000000     0          
O        O      0.951050000000     0.134400000000     0.591700000000     0          
O        O      0.932600000000     0.067400000000     0.572300000000     0          
O        O      0.500000000000     0.088000000000     0.561500000000     0          
O        O      0.950400000000     0.111200000000     0.500000000000     0          
O        O      0.840950000000     0.000000000000     0.653200000000     0          
O        O      0.817650000000     0.066750000000     0.659000000000     0          
O        O      0.821300000000     0.000000000000     0.812200000000     0          
O        O      0.800050000000     0.050050000000     0.750000000000     0          
T        Si     0.850900000000     0.291600000000     0.760700000000     0          
T        Si     0.958500000000     0.100250000000     0.556300000000     0          
T        Si     0.852100000000     0.041750000000     0.647200000000     0          
T        Si     0.826450000000     0.041400000000     0.795600000000     0          
O        O      0.698800000000     0.365900000000     0.814900000000     0          
O        O      0.702050000000     0.382350000000     0.720700000000     0          
O        O      0.750000000000     0.338400000000     0.759400000000     0          
O        O      0.682950000000     0.317050000000     0.747900000000     0          
O        O      0.865600000000     0.451050000000     0.591700000000     0          
O        O      0.932600000000     0.432600000000     0.572300000000     0          
O        O      0.912000000000     0.000000000000     0.561500000000     0          
O        O      0.888800000000     0.450400000000     0.500000000000     0          
O        O      0.500000000000     0.340950000000     0.653200000000     0          
O        O      0.933250000000     0.317650000000     0.659000000000     0          
O        O      0.500000000000     0.321300000000     0.812200000000     0          
O        O      0.949950000000     0.300050000000     0.750000000000     0          
T        Si     0.708400000000     0.350900000000     0.760700000000     0          
T        Si     0.899750000000     0.458500000000     0.556300000000     0          
T        Si     0.958250000000     0.352100000000     0.647200000000     0          
T        Si     0.958600000000     0.326450000000     0.795600000000     0          
O        O      0.865900000000     0.198800000000     0.814900000000     0          
O        O      0.882350000000     0.202050000000     0.720700000000     0          
O        O      0.951050000000     0.365600000000     0.591700000000     0          
O        O      0.817650000000     0.433250000000     0.659000000000     0          
O        O      0.800050000000     0.449950000000     0.750000000000     0          
T        Si     0.850900000000     0.208400000000     0.760700000000     0          
T        Si     0.958500000000     0.399750000000     0.556300000000     0          
T        Si     0.852100000000     0.458250000000     0.647200000000     0          
T        Si     0.826450000000     0.458600000000     0.795600000000     0          
O        O      0.801200000000     0.365900000000     0.814900000000     0          
O        O      0.797950000000     0.382350000000     0.720700000000     0          
O        O      0.634400000000     0.451050000000     0.591700000000     0          
O        O      0.566750000000     0.317650000000     0.659000000000     0          
O        O      0.550050000000     0.300050000000     0.750000000000     0          
T        Si     0.791600000000     0.350900000000     0.760700000000     0          
T        Si     0.600250000000     0.458500000000     0.556300000000     0          
T        Si     0.541750000000     0.352100000000     0.647200000000     0          
T        Si     0.541400000000     0.326450000000     0.795600000000     0          
O        O      0.634100000000     0.301200000000     0.814900000000     0          
O        O      0.617650000000     0.297950000000     0.720700000000     0          
O        O      0.548950000000     0.134400000000     0.591700000000     0          
O        O      0.682350000000     0.066750000000     0.659000000000     0          
O        O      0.699950000000     0.050050000000     0.750000000000     0          
T        Si     0.649100000000     0.291600000000     0.760700000000     0          
T        Si     0.541500000000     0.100250000000     0.556300000000     0          
T        Si     0.647900000000     0.041750000000     0.647200000000     0          
T        Si     0.673550000000     0.041400000000     0.795600000000     0          
O        O      0.698800000000     0.134100000000     0.814900000000     0          
O        O      0.702050000000     0.117650000000     0.720700000000     0          
O        O      0.865600000000     0.048950000000     0.591700000000     0          
O        O      0.933250000000     0.182350000000     0.659000000000     0          
O        O      0.949950000000     0.199950000000     0.750000000000     0          
T        Si     0.708400000000     0.149100000000     0.760700000000     0          
T        Si     0.899750000000     0.041500000000     0.556300000000     0          
T        Si     0.958250000000     0.147900000000     0.647200000000     0          
T        Si     0.958600000000     0.173550000000     0.795600000000     0          
O        O      0.865900000000     0.301200000000     0.185100000000     0          
O        O      0.882350000000     0.297950000000     0.279300000000     0          
O        O      0.951050000000     0.134400000000     0.408300000000     0          
O        O      0.817650000000     0.066750000000     0.341000000000     0          
O        O      0.800050000000     0.050050000000     0.250000000000     0          
T        Si     0.850900000000     0.291600000000     0.239300000000     0          
T        Si     0.958500000000     0.100250000000     0.443700000000     0          
T        Si     0.852100000000     0.041750000000     0.352800000000     0          
T        Si     0.826450000000     0.041400000000     0.204400000000     0          
O        O      0.698800000000     0.365900000000     0.185100000000     0          
O        O      0.702050000000     0.382350000000     0.279300000000     0          
O        O      0.865600000000     0.451050000000     0.408300000000     0          
O        O      0.933250000000     0.317650000000     0.341000000000     0          
O        O      0.949950000000     0.300050000000     0.250000000000     0          
T        Si     0.708400000000     0.350900000000     0.239300000000     0          
T        Si     0.899750000000     0.458500000000     0.443700000000     0          
T        Si     0.958250000000     0.352100000000     0.352800000000     0          
T        Si     0.958600000000     0.326450000000     0.204400000000     0          
O        O      0.634100000000     0.198800000000     0.185100000000     0          
O        O      0.617650000000     0.202050000000     0.279300000000     0          
O        O      0.548950000000     0.365600000000     0.408300000000     0          
O        O      0.682350000000     0.433250000000     0.341000000000     0          
O        O      0.699950000000     0.449950000000     0.250000000000     0          
T        Si     0.649100000000     0.208400000000     0.239300000000     0          
T        Si     0.541500000000     0.399750000000     0.443700000000     0          
T        Si     0.647900000000     0.458250000000     0.352800000000     0          
T        Si     0.673550000000     0.458600000000     0.204400000000     0          
O        O      0.801200000000     0.134100000000     0.185100000000     0          
O        O      0.797950000000     0.117650000000     0.279300000000     0          
O        O      0.634400000000     0.048950000000     0.408300000000     0          
O        O      0.566750000000     0.182350000000     0.341000000000     0          
O        O      0.550050000000     0.199950000000     0.250000000000     0          
T        Si     0.791600000000     0.149100000000     0.239300000000     0          
T        Si     0.600250000000     0.041500000000     0.443700000000     0          
T        Si     0.541750000000     0.147900000000     0.352800000000     0          
T        Si     0.541400000000     0.173550000000     0.204400000000     0          
O        O      0.884100000000     0.051200000000     0.685100000000     0          
O        O      0.867650000000     0.047950000000     0.779300000000     0          
O        O      0.911600000000     0.000000000000     0.740600000000     0          
O        O      0.932950000000     0.067050000000     0.752100000000     0          
O        O      0.798950000000     0.384400000000     0.908300000000     0          
O        O      0.817400000000     0.317400000000     0.927700000000     0          
O        O      0.750000000000     0.338000000000     0.938500000000     0          
O        O      0.799600000000     0.361200000000     0.000000000000     0          
O        O      0.909050000000     0.250000000000     0.846800000000     0          
O        O      0.932350000000     0.316750000000     0.841000000000     0          
O        O      0.928700000000     0.250000000000     0.687800000000     0          
T        Si     0.899100000000     0.041600000000     0.739300000000     0          
T        Si     0.791500000000     0.350250000000     0.943700000000     0          
T        Si     0.897900000000     0.291750000000     0.852800000000     0          
T        Si     0.923550000000     0.291400000000     0.704400000000     0          
O        O      0.948800000000     0.384100000000     0.685100000000     0          
O        O      0.952050000000     0.367650000000     0.779300000000     0          
O        O      0.500000000000     0.411600000000     0.740600000000     0          
O        O      0.932950000000     0.432950000000     0.752100000000     0          
O        O      0.615600000000     0.298950000000     0.908300000000     0          
O        O      0.682600000000     0.317400000000     0.927700000000     0          
O        O      0.662000000000     0.250000000000     0.938500000000     0          
O        O      0.638800000000     0.299600000000     0.000000000000     0          
O        O      0.750000000000     0.409050000000     0.846800000000     0          
O        O      0.683250000000     0.432350000000     0.841000000000     0          
O        O      0.750000000000     0.428700000000     0.687800000000     0          
T        Si     0.958400000000     0.399100000000     0.739300000000     0          
T        Si     0.649750000000     0.291500000000     0.943700000000     0          
T        Si     0.708250000000     0.397900000000     0.852800000000     0          
T        Si     0.708600000000     0.423550000000     0.704400000000     0          
O        O      0.615900000000     0.448800000000     0.685100000000     0          
O        O      0.632350000000     0.452050000000     0.779300000000     0          
O        O      0.588400000000     0.000000000000     0.740600000000     0          
O        O      0.567050000000     0.432950000000     0.752100000000     0          
O        O      0.701050000000     0.115600000000     0.908300000000     0          
O        O      0.682600000000     0.182600000000     0.927700000000     0          
O        O      0.750000000000     0.162000000000     0.938500000000     0          
O        O      0.700400000000     0.138800000000     0.000000000000     0          
O        O      0.590950000000     0.250000000000     0.846800000000     0          
O        O      0.567650000000     0.183250000000     0.841000000000     0          
O        O      0.571300000000     0.250000000000     0.687800000000     0          
T        Si     0.600900000000     0.458400000000     0.739300000000     0          
T        Si     0.708500000000     0.149750000000     0.943700000000     0          
T        Si     0.602100000000     0.208250000000     0.852800000000     0          
T        Si     0.576450000000     0.208600000000     0.704400000000     0          
O        O      0.551200000000     0.115900000000     0.685100000000     0          
O        O      0.547950000000     0.132350000000     0.779300000000     0          
O        O      0.500000000000     0.088400000000     0.740600000000     0          
O        O      0.567050000000     0.067050000000     0.752100000000     0          
O        O      0.884400000000     0.201050000000     0.908300000000     0          
O        O      0.817400000000     0.182600000000     0.927700000000     0          
O        O      0.838000000000     0.250000000000     0.938500000000     0          
O        O      0.861200000000     0.200400000000     0.000000000000     0          
O        O      0.750000000000     0.090950000000     0.846800000000     0          
O        O      0.816750000000     0.067650000000     0.841000000000     0          
O        O      0.750000000000     0.071300000000     0.687800000000     0          
T        Si     0.541600000000     0.100900000000     0.739300000000     0          
T        Si     0.850250000000     0.208500000000     0.943700000000     0          
T        Si     0.791750000000     0.102100000000     0.852800000000     0          
T        Si     0.791400000000     0.076450000000     0.704400000000     0          
O        O      0.884100000000     0.448800000000     0.314900000000     0          
O        O      0.867650000000     0.452050000000     0.220700000000     0          
O        O      0.911600000000     0.000000000000     0.259400000000     0          
O        O      0.932950000000     0.432950000000     0.247900000000     0          
O        O      0.798950000000     0.115600000000     0.091700000000     0          
O        O      0.817400000000     0.182600000000     0.072300000000     0          
O        O      0.750000000000     0.162000000000     0.061500000000     0          
O        O      0.799600000000     0.138800000000     0.000000000000     0          
O        O      0.909050000000     0.250000000000     0.153200000000     0          
O        O      0.932350000000     0.183250000000     0.159000000000     0          
O        O      0.928700000000     0.250000000000     0.312200000000     0          
T        Si     0.899100000000     0.458400000000     0.260700000000     0          
T        Si     0.791500000000     0.149750000000     0.056300000000     0          
T        Si     0.897900000000     0.208250000000     0.147200000000     0          
T        Si     0.923550000000     0.208600000000     0.295600000000     0          
O        O      0.551200000000     0.384100000000     0.314900000000     0          
O        O      0.547950000000     0.367650000000     0.220700000000     0          
O        O      0.500000000000     0.411600000000     0.259400000000     0          
O        O      0.567050000000     0.432950000000     0.247900000000     0          
O        O      0.884400000000     0.298950000000     0.091700000000     0          
O        O      0.817400000000     0.317400000000     0.072300000000     0          
O        O      0.838000000000     0.250000000000     0.061500000000     0          
O        O      0.861200000000     0.299600000000     0.000000000000     0          
O        O      0.750000000000     0.409050000000     0.153200000000     0          
O        O      0.816750000000     0.432350000000     0.159000000000     0          
O        O      0.750000000000     0.428700000000     0.312200000000     0          
T        Si     0.541600000000     0.399100000000     0.260700000000     0          
T        Si     0.850250000000     0.291500000000     0.056300000000     0          
T        Si     0.791750000000     0.397900000000     0.147200000000     0          
T        Si     0.791400000000     0.423550000000     0.295600000000     0          
O        O      0.615900000000     0.051200000000     0.314900000000     0          
O        O      0.632350000000     0.047950000000     0.220700000000     0          
O        O      0.588400000000     0.000000000000     0.259400000000     0          
O        O      0.567050000000     0.067050000000     0.247900000000     0          
O        O      0.701050000000     0.384400000000     0.091700000000     0          
O        O      0.682600000000     0.317400000000     0.072300000000     0          
O        O      0.750000000000     0.338000000000     0.061500000000     0          
O        O      0.700400000000     0.361200000000     0.000000000000     0          
O        O      0.590950000000     0.250000000000     0.153200000000     0          
O        O      0.567650000000     0.316750000000     0.159000000000     0          
O        O      0.571300000000     0.250000000000     0.312200000000     0          
T        Si     0.600900000000     0.041600000000     0.260700000000     0          
T        Si     0.708500000000     0.350250000000     0.056300000000     0          
T        Si     0.602100000000     0.291750000000     0.147200000000     0          
T        Si     0.576450000000     0.291400000000     0.295600000000     0          
O        O      0.948800000000     0.115900000000     0.314900000000     0          
O        O      0.952050000000     0.132350000000     0.220700000000     0          
O        O      0.500000000000     0.088400000000     0.259400000000     0          
O        O      0.932950000000     0.067050000000     0.247900000000     0          
O        O      0.615600000000     0.201050000000     0.091700000000     0          
O        O      0.682600000000     0.182600000000     0.072300000000     0          
O        O      0.662000000000     0.250000000000     0.061500000000     0          
O        O      0.638800000000     0.200400000000     0.000000000000     0          
O        O      0.750000000000     0.090950000000     0.153200000000     0          
O        O      0.683250000000     0.067650000000     0.159000000000     0          
O        O      0.750000000000     0.071300000000     0.312200000000     0          
T        Si     0.958400000000     0.100900000000     0.260700000000     0          
T        Si     0.649750000000     0.208500000000     0.056300000000     0          
T        Si     0.708250000000     0.102100000000     0.147200000000     0          
T        Si     0.708600000000     0.076450000000     0.295600000000     0          
O        O      0.615900000000     0.448800000000     0.314900000000     0          
O        O      0.632350000000     0.452050000000     0.220700000000     0          
O        O      0.701050000000     0.115600000000     0.091700000000     0          
O        O      0.567650000000     0.183250000000     0.159000000000     0          
T        Si     0.600900000000     0.458400000000     0.260700000000     0          
T        Si     0.708500000000     0.149750000000     0.056300000000     0          
T        Si     0.602100000000     0.208250000000     0.147200000000     0          
T        Si     0.576450000000     0.208600000000     0.295600000000     0          
O        O      0.551200000000     0.115900000000     0.314900000000     0          
O        O      0.547950000000     0.132350000000     0.220700000000     0          
O        O      0.884400000000     0.201050000000     0.091700000000     0          
O        O      0.816750000000     0.067650000000     0.159000000000     0          
T        Si     0.541600000000     0.100900000000     0.260700000000     0          
T        Si     0.850250000000     0.208500000000     0.056300000000     0          
T        Si     0.791750000000     0.102100000000     0.147200000000     0          
T        Si     0.791400000000     0.076450000000     0.295600000000     0          
O        O      0.884100000000     0.051200000000     0.314900000000     0          
O        O      0.867650000000     0.047950000000     0.220700000000     0          
O        O      0.798950000000     0.384400000000     0.091700000000     0          
O        O      0.932350000000     0.316750000000     0.159000000000     0          
T        Si     0.899100000000     0.041600000000     0.260700000000     0          
T        Si     0.791500000000     0.350250000000     0.056300000000     0          
T        Si     0.897900000000     0.291750000000     0.147200000000     0          
T        Si     0.923550000000     0.291400000000     0.295600000000     0          
O        O      0.948800000000     0.384100000000     0.314900000000     0          
O        O      0.952050000000     0.367650000000     0.220700000000     0          
O        O      0.615600000000     0.298950000000     0.091700000000     0          
O        O      0.683250000000     0.432350000000     0.159000000000     0          
T        Si     0.958400000000     0.399100000000     0.260700000000     0          
T        Si     0.649750000000     0.291500000000     0.056300000000     0          
T        Si     0.708250000000     0.397900000000     0.147200000000     0          
T        Si     0.708600000000     0.423550000000     0.295600000000     0          
O        O      0.615900000000     0.051200000000     0.685100000000     0          
O        O      0.632350000000     0.047950000000     0.779300000000     0          
O        O      0.701050000000     0.384400000000     0.908300000000     0          
O        O      0.567650000000     0.316750000000     0.841000000000     0          
T        Si     0.600900000000     0.041600000000     0.739300000000     0          
T        Si     0.708500000000     0.350250000000     0.943700000000     0          
T        Si     0.602100000000     0.291750000000     0.852800000000     0          
T        Si     0.576450000000     0.291400000000     0.704400000000     0          
O        O      0.948800000000     0.115900000000     0.685100000000     0          
O        O      0.952050000000     0.132350000000     0.779300000000     0          
O        O      0.615600000000     0.201050000000     0.908300000000     0          
O        O      0.683250000000     0.067650000000     0.841000000000     0          
T        Si     0.958400000000     0.100900000000     0.739300000000     0          
T        Si     0.649750000000     0.208500000000     0.943700000000     0          
T        Si     0.708250000000     0.102100000000     0.852800000000     0          
T        Si     0.708600000000     0.076450000000     0.704400000000     0          
O        O      0.884100000000     0.448800000000     0.685100000000     0          
O        O      0.867650000000     0.452050000000     0.779300000000     0          
O        O      0.798950000000     0.115600000000     0.908300000000     0          
O        O      0.932350000000     0.183250000000     0.841000000000     0          
T        Si     0.899100000000     0.458400000000     0.739300000000     0          
T        Si     0.791500000000     0.149750000000     0.943700000000     0          
T        Si     0.897900000000     0.208250000000     0.852800000000     0          
T        Si     0.923550000000     0.208600000000     0.704400000000     0          
O        O      0.551200000000     0.384100000000     0.685100000000     0          
O        O      0.547950000000     0.367650000000     0.779300000000     0          
O        O      0.884400000000     0.298950000000     0.908300000000     0          
O        O      0.816750000000     0.432350000000     0.841000000000     0          
T        Si     0.541600000000     0.399100000000     0.739300000000     0          
T        Si     0.850250000000     0.291500000000     0.943700000000     0          
T        Si     0.791750000000     0.397900000000     0.852800000000     0          
T        Si     0.791400000000     0.423550000000     0.704400000000     0          
O        O      0.634100000000     0.801200000000     0.185100000000     0          
O        O      0.617650000000     0.797950000000     0.279300000000     0          
O        O      0.661600000000     0.750000000000     0.240600000000     0          
O        O      0.682950000000     0.817050000000     0.252100000000     0          
O        O      0.548950000000     0.634400000000     0.408300000000     0          
O        O      0.567400000000     0.567400000000     0.427700000000     0          
O        O      0.500000000000     0.588000000000     0.438500000000     0          
O        O      0.549600000000     0.611200000000     0.500000000000     0          
O        O      0.659050000000     0.500000000000     0.346800000000     0          
O        O      0.682350000000     0.566750000000     0.341000000000     0          
O        O      0.678700000000     0.500000000000     0.187800000000     0          
O        O      0.699950000000     0.550050000000     0.250000000000     0          
T        Si     0.649100000000     0.791600000000     0.239300000000     0          
T        Si     0.541500000000     0.600250000000     0.443700000000     0          
T        Si     0.647900000000     0.541750000000     0.352800000000     0          
T        Si     0.673550000000     0.541400000000     0.204400000000     0          
O        O      0.698800000000     0.634100000000     0.185100000000     0          
O        O      0.702050000000     0.617650000000     0.279300000000     0          
O        O      0.750000000000     0.661600000000     0.240600000000     0          
O        O      0.682950000000     0.682950000000     0.252100000000     0          
O        O      0.865600000000     0.548950000000     0.408300000000     0          
O        O      0.932600000000     0.567400000000     0.427700000000     0          
O        O      0.912000000000     0.500000000000     0.438500000000     0          
O        O      0.888800000000     0.549600000000     0.500000000000     0          
O        O      0.500000000000     0.659050000000     0.346800000000     0          
O        O      0.933250000000     0.682350000000     0.341000000000     0          
O        O      0.500000000000     0.678700000000     0.187800000000     0          
O        O      0.949950000000     0.699950000000     0.250000000000     0          
T        Si     0.708400000000     0.649100000000     0.239300000000     0          
T        Si     0.899750000000     0.541500000000     0.443700000000     0          
T        Si     0.958250000000     0.647900000000     0.352800000000     0          
T        Si     0.958600000000     0.673550000000     0.204400000000     0          
O        O      0.865900000000     0.698800000000     0.185100000000     0          
O        O      0.882350000000     0.702050000000     0.279300000000     0          
O        O      0.838400000000     0.750000000000     0.240600000000     0          
O        O      0.817050000000     0.682950000000     0.252100000000     0          
O        O      0.951050000000     0.865600000000     0.408300000000     0          
O        O      0.932600000000     0.932600000000     0.427700000000     0          
O        O      0.500000000000     0.912000000000     0.438500000000     0          
O        O      0.950400000000     0.888800000000     0.500000000000     0          
O        O      0.840950000000     0.500000000000     0.346800000000     0          
O        O      0.817650000000     0.933250000000     0.341000000000     0          
O        O      0.821300000000     0.500000000000     0.187800000000     0          
O        O      0.800050000000     0.949950000000     0.250000000000     0          
T        Si     0.850900000000     0.708400000000     0.239300000000     0          
T        Si     0.958500000000     0.899750000000     0.443700000000     0          
T        Si     0.852100000000     0.958250000000     0.352800000000     0          
T        Si     0.826450000000     0.958600000000     0.204400000000     0          
O        O      0.801200000000     0.865900000000     0.185100000000     0          
O        O      0.797950000000     0.882350000000     0.279300000000     0          
O        O      0.750000000000     0.838400000000     0.240600000000     0          
O        O      0.817050000000     0.817050000000     0.252100000000     0          
O        O      0.634400000000     0.951050000000     0.408300000000     0          
O        O      0.567400000000     0.932600000000     0.427700000000     0          
O        O      0.588000000000     0.500000000000     0.438500000000     0          
O        O      0.611200000000     0.950400000000     0.500000000000     0          
O        O      0.500000000000     0.840950000000     0.346800000000     0          
O        O      0.566750000000     0.817650000000     0.341000000000     0          
O        O      0.500000000000     0.821300000000     0.187800000000     0          
O        O      0.550050000000     0.800050000000     0.250000000000     0          
T        Si     0.791600000000     0.850900000000     0.239300000000     0          
T        Si     0.600250000000     0.958500000000     0.443700000000     0          
T        Si     0.541750000000     0.852100000000     0.352800000000     0          
T        Si     0.541400000000     0.826450000000     0.204400000000     0          
O        O      0.634100000000     0.698800000000     0.814900000000     0          
O        O      0.617650000000     0.702050000000     0.720700000000     0          
O        O      0.661600000000     0.750000000000     0.759400000000     0          
O        O      0.682950000000     0.682950000000     0.747900000000     0          
O        O      0.548950000000     0.865600000000     0.591700000000     0          
O        O      0.567400000000     0.932600000000     0.572300000000     0          
O        O      0.500000000000     0.912000000000     0.561500000000     0          
O        O      0.549600000000     0.888800000000     0.500000000000     0          
O        O      0.659050000000     0.500000000000     0.653200000000     0          
O        O      0.682350000000     0.933250000000     0.659000000000     0          
O        O      0.678700000000     0.500000000000     0.812200000000     0          
O        O      0.699950000000     0.949950000000     0.750000000000     0          
T        Si     0.649100000000     0.708400000000     0.760700000000     0          
T        Si     0.541500000000     0.899750000000     0.556300000000     0          
T        Si     0.647900000000     0.958250000000     0.647200000000     0          
T        Si     0.673550000000     0.958600000000     0.795600000000     0          
O        O      0.801200000000     0.634100000000     0.814900000000     0          
O        O      0.797950000000     0.617650000000     0.720700000000     0          
O        O      0.750000000000     0.661600000000     0.759400000000     0          
O        O      0.817050000000     0.682950000000     0.747900000000     0          
O        O      0.634400000000     0.548950000000     0.591700000000     0          
O        O      0.567400000000     0.567400000000     0.572300000000     0          
O        O      0.588000000000     0.500000000000     0.561500000000     0          
O        O      0.611200000000     0.549600000000     0.500000000000     0          
O        O      0.500000000000     0.659050000000     0.653200000000     0          
O        O      0.566750000000     0.682350000000     0.659000000000     0          
O        O      0.500000000000     0.678700000000     0.812200000000     0          
O        O      0.550050000000     0.699950000000     0.750000000000     0          
T        Si     0.791600000000     0.649100000000     0.760700000000     0          
T        Si     0.600250000000     0.541500000000     0.556300000000     0          
T        Si     0.541750000000     0.647900000000     0.647200000000     0          
T        Si     0.541400000000     0.673550000000     0.795600000000     0          
O        O      0.865900000000     0.801200000000     0.814900000000     0          
O        O      0.882350000000     0.797950000000     0.720700000000     0          
O        O      0.838400000000     0.750000000000     0.759400000000     0          
O        O      0.817050000000     0.817050000000     0.747900000000     0          
O        O      0.951050000000     0.634400000000     0.591700000000     0          
O        O      0.932600000000     0.567400000000     0.572300000000     0          
O        O      0.500000000000     0.588000000000     0.561500000000     0          
O        O      0.950400000000     0.611200000000     0.500000000000     0          
O        O      0.840950000000     0.500000000000     0.653200000000     0          
O        O      0.817650000000     0.566750000000     0.659000000000     0          
O        O      0.821300000000     0.500000000000     0.812200000000     0          
O        O      0.800050000000     0.550050000000     0.750000000000     0          
T        Si     0.850900000000     0.791600000000     0.760700000000     0          
T        Si     0.958500000000     0.600250000000     0.556300000000     0          
T        Si     0.852100000000     0.541750000000     0.647200000000     0          
T        Si     0.826450000000     0.541400000000     0.795600000000     0          
O        O      0.698800000000     0.865900000000     0.814900000000     0          
O        O      0.702050000000     0.882350000000     0.720700000000     0          
O        O      0.750000000000     0.838400000000     0.759400000000     0          
O        O      0.682950000000     0.817050000000     0.747900000000     0          
O        O      0.865600000000     0.951050000000     0.591700000000     0          
O        O      0.932600000000     0.932600000000     0.572300000000     0          
O        O      0.912000000000     0.500000000000     0.561500000000     0          
O        O      0.888800000000     0.950400000000     0.500000000000     0          
O        O      0.500000000000     0.840950000000     0.653200000000     0          
O        O      0.933250000000     0.817650000000     0.659000000000     0          
O        O      0.500000000000     0.821300000000     0.812200000000     0          
O        O      0.949950000000     0.800050000000     0.750000000000     0          
T        Si     0.708400000000     0.850900000000     0.760700000000     0          
T        Si     0.899750000000     0.958500000000     0.556300000000     0          
T        Si     0.958250000000     0.852100000000     0.647200000000     0          
T        Si     0.958600000000     0.826450000000     0.795600000000     0          
O        O      0.865900000000     0.698800000000     0.814900000000     0          
O        O      0.882350000000     0.702050000000     0.720700000000     0          
O        O      0.951050000000     0.865600000000     0.591700000000     0          
O        O      0.817650000000     0.933250000000     0.659000000000     0          
O        O      0.800050000000     0.949950000000     0.750000000000     0          
T        Si     0.850900000000     0.708400000000     0.760700000000     0          
T        Si     0.958500000000     0.899750000000     0.556300000000     0          
T        Si     0.852100000000     0.958250000000     0.647200000000     0          
T        Si     0.826450000000     0.958600000000     0.795600000000     0          
O        O      0.801200000000     0.865900000000     0.814900000000     0          
O        O      0.797950000000     0.882350000000     0.720700000000     0          
O        O      0.634400000000     0.951050000000     0.591700000000     0          
O        O      0.566750000000     0.817650000000     0.659000000000     0          
O        O      0.550050000000     0.800050000000     0.750000000000     0          
T        Si     0.791600000000     0.850900000000     0.760700000000     0          
T        Si     0.600250000000     0.958500000000     0.556300000000     0          
T        Si     0.541750000000     0.852100000000     0.647200000000     0          
T        Si     0.541400000000     0.826450000000     0.795600000000     0          
O        O      0.634100000000     0.801200000000     0.814900000000     0          
O        O      0.617650000000     0.797950000000     0.720700000000     0          
O        O      0.548950000000     0.634400000000     0.591700000000     0          
O        O      0.682350000000     0.566750000000     0.659000000000     0          
O        O      0.699950000000     0.550050000000     0.750000000000     0          
T        Si     0.649100000000     0.791600000000     0.760700000000     0          
T        Si     0.541500000000     0.600250000000     0.556300000000     0          
T        Si     0.647900000000     0.541750000000     0.647200000000     0          
T        Si     0.673550000000     0.541400000000     0.795600000000     0          
O        O      0.698800000000     0.634100000000     0.814900000000     0          
O        O      0.702050000000     0.617650000000     0.720700000000     0          
O        O      0.865600000000     0.548950000000     0.591700000000     0          
O        O      0.933250000000     0.682350000000     0.659000000000     0          
O        O      0.949950000000     0.699950000000     0.750000000000     0          
T        Si     0.708400000000     0.649100000000     0.760700000000     0          
T        Si     0.899750000000     0.541500000000     0.556300000000     0          
T        Si     0.958250000000     0.647900000000     0.647200000000     0          
T        Si     0.958600000000     0.673550000000     0.795600000000     0          
O        O      0.865900000000     0.801200000000     0.185100000000     0          
O        O      0.882350000000     0.797950000000     0.279300000000     0          
O        O      0.951050000000     0.634400000000     0.408300000000     0          
O        O      0.817650000000     0.566750000000     0.341000000000     0          
O        O      0.800050000000     0.550050000000     0.250000000000     0          
T        Si     0.850900000000     0.791600000000     0.239300000000     0          
T        Si     0.958500000000     0.600250000000     0.443700000000     0          
T        Si     0.852100000000     0.541750000000     0.352800000000     0          
T        Si     0.826450000000     0.541400000000     0.204400000000     0          
O        O      0.698800000000     0.865900000000     0.185100000000     0          
O        O      0.702050000000     0.882350000000     0.279300000000     0          
O        O      0.865600000000     0.951050000000     0.408300000000     0          
O        O      0.933250000000     0.817650000000     0.341000000000     0          
O        O      0.949950000000     0.800050000000     0.250000000000     0          
T        Si     0.708400000000     0.850900000000     0.239300000000     0          
T        Si     0.899750000000     0.958500000000     0.443700000000     0          
T        Si     0.958250000000     0.852100000000     0.352800000000     0          
T        Si     0.958600000000     0.826450000000     0.204400000000     0          
O        O      0.634100000000     0.698800000000     0.185100000000     0          
O        O      0.617650000000     0.702050000000     0.279300000000     0          
O        O      0.548950000000     0.865600000000     0.408300000000     0          
O        O      0.682350000000     0.933250000000     0.341000000000     0          
O        O      0.699950000000     0.949950000000     0.250000000000     0          
T        Si     0.649100000000     0.708400000000     0.239300000000     0          
T        Si     0.541500000000     0.899750000000     0.443700000000     0          
T        Si     0.647900000000     0.958250000000     0.352800000000     0          
T        Si     0.673550000000     0.958600000000     0.204400000000     0          
O        O      0.801200000000     0.634100000000     0.185100000000     0          
O        O      0.797950000000     0.617650000000     0.279300000000     0          
O        O      0.634400000000     0.548950000000     0.408300000000     0          
O        O      0.566750000000     0.682350000000     0.341000000000     0          
O        O      0.550050000000     0.699950000000     0.250000000000     0          
T        Si     0.791600000000     0.649100000000     0.239300000000     0          
T        Si     0.600250000000     0.541500000000     0.443700000000     0          
T        Si     0.541750000000     0.647900000000     0.352800000000     0          
T        Si     0.541400000000     0.673550000000     0.204400000000     0          
O        O      0.884100000000     0.551200000000     0.685100000000     0          
O        O      0.867650000000     0.547950000000     0.779300000000     0          
O        O      0.911600000000     0.500000000000     0.740600000000     0          
O        O      0.932950000000     0.567050000000     0.752100000000     0          
O        O      0.798950000000     0.884400000000     0.908300000000     0          
O        O      0.817400000000     0.817400000000     0.927700000000     0          
O        O      0.750000000000     0.838000000000     0.938500000000     0          
O        O      0.799600000000     0.861200000000     0.000000000000     0          
O        O      0.909050000000     0.750000000000     0.846800000000     0          
O        O      0.932350000000     0.816750000000     0.841000000000     0          
O        O      0.928700000000     0.750000000000     0.687800000000     0          
T        Si     0.899100000000     0.541600000000     0.739300000000     0          
T        Si     0.791500000000     0.850250000000     0.943700000000     0          
T        Si     0.897900000000     0.791750000000     0.852800000000     0          
T        Si     0.923550000000     0.791400000000     0.704400000000     0          
O        O      0.948800000000     0.884100000000     0.685100000000     0          
O        O      0.952050000000     0.867650000000     0.779300000000     0          
O        O      0.500000000000     0.911600000000     0.740600000000     0          
O        O      0.932950000000     0.932950000000     0.752100000000     0          
O        O      0.615600000000     0.798950000000     0.908300000000     0          
O        O      0.682600000000     0.817400000000     0.927700000000     0          
O        O      0.662000000000     0.750000000000     0.938500000000     0          
O        O      0.638800000000     0.799600000000     0.000000000000     0          
O        O      0.750000000000     0.909050000000     0.846800000000     0          
O        O      0.683250000000     0.932350000000     0.841000000000     0          
O        O      0.750000000000     0.928700000000     0.687800000000     0          
T        Si     0.958400000000     0.899100000000     0.739300000000     0          
T        Si     0.649750000000     0.791500000000     0.943700000000     0          
T        Si     0.708250000000     0.897900000000     0.852800000000     0          
T        Si     0.708600000000     0.923550000000     0.704400000000     0          
O        O      0.615900000000     0.948800000000     0.685100000000     0          
O        O      0.632350000000     0.952050000000     0.779300000000     0          
O        O      0.588400000000     0.500000000000     0.740600000000     0          
O        O      0.567050000000     0.932950000000     0.752100000000     0          
O        O      0.701050000000     0.615600000000     0.908300000000     0          
O        O      0.682600000000     0.682600000000     0.927700000000     0          
O        O      0.750000000000     0.662000000000     0.938500000000     0          
O        O      0.700400000000     0.638800000000     0.000000000000     0          
O        O      0.590950000000     0.750000000000     0.846800000000     0          
O        O      0.567650000000     0.683250000000     0.841000000000     0          
O        O      0.571300000000     0.750000000000     0.687800000000     0          
T        Si     0.600900000000     0.958400000000     0.739300000000     0          
T        Si     0.708500000000     0.649750000000     0.943700000000     0          
T        Si     0.602100000000     0.708250000000     0.852800000000     0          
T        Si     0.576450000000     0.708600000000     0.704400000000     0          
O        O      0.551200000000     0.615900000000     0.685100000000     0          
O        O      0.547950000000     0.632350000000     0.779300000000     0          
O        O      0.500000000000     0.588400000000     0.740600000000     0          
O        O      0.567050000000     0.567050000000     0.752100000000     0          
O        O      0.884400000000     0.701050000000     0.908300000000     0          
O        O      0.817400000000     0.682600000000     0.927700000000     0          
O        O      0.838000000000     0.750000000000     0.938500000000     0          
O        O      0.861200000000     0.700400000000     0.000000000000     0          
O        O      0.750000000000     0.590950000000     0.846800000000     0          
O        O      0.816750000000     0.567650000000     0.841000000000     0          
O        O      0.750000000000     0.571300000000     0.687800000000     0          
T        Si     0.541600000000     0.600900000000     0.739300000000     0          
T        Si     0.850250000000     0.708500000000     0.943700000000     0          
T        Si     0.791750000000     0.602100000000     0.852800000000     0          
T        Si     0.791400000000     0.576450000000     0.704400000000     0          
O        O      0.884100000000     0.948800000000     0.314900000000     0          
O        O      0.867650000000     0.952050000000     0.220700000000     0          
O        O      0.911600000000     0.500000000000     0.259400000000     0          
O        O      0.932950000000     0.932950000000     0.247900000000     0          
O        O      0.798950000000     0.615600000000     0.091700000000     0          
O        O      0.817400000000     0.682600000000     0.072300000000     0          
O        O      0.750000000000     0.662000000000     0.061500000000     0          
O        O      0.799600000000     0.638800000000     0.000000000000     0          
O        O      0.909050000000     0.750000000000     0.153200000000     0          
O        O      0.932350000000     0.683250000000     0.159000000000     0          
O        O      0.928700000000     0.750000000000     0.312200000000     0          
T        Si     0.899100000000     0.958400000000     0.260700000000     0          
T        Si     0.791500000000     0.649750000000     0.056300000000     0          
T        Si     0.897900000000     0.708250000000     0.147200000000     0          
T        Si     0.923550000000     0.708600000000     0.295600000000     0          
O        O      0.551200000000     0.884100000000     0.314900000000     0          
O        O      0.547950000000     0.867650000000     0.220700000000     0          
O        O      0.500000000000     0.911600000000     0.259400000000     0          
O        O      0.567050000000     0.932950000000     0.247900000000     0          
O        O      0.884400000000     0.798950000000     0.091700000000     0          
O        O      0.817400000000     0.817400000000     0.072300000000     0          
O        O      0.838000000000     0.750000000000     0.061500000000     0          
O        O      0.861200000000     0.799600000000     0.000000000000     0          
O        O      0.750000000000     0.909050000000     0.153200000000     0          
O        O      0.816750000000     0.932350000000     0.159000000000     0          
O        O      0.750000000000     0.928700000000     0.312200000000     0          
T        Si     0.541600000000     0.899100000000     0.260700000000     0          
T        Si     0.850250000000     0.791500000000     0.056300000000     0          
T        Si     0.791750000000     0.897900000000     0.147200000000     0          
T        Si     0.791400000000     0.923550000000     0.295600000000     0          
O        O      0.615900000000     0.551200000000     0.314900000000     0          
O        O      0.632350000000     0.547950000000     0.220700000000     0          
O        O      0.588400000000     0.500000000000     0.259400000000     0          
O        O      0.567050000000     0.567050000000     0.247900000000     0          
O        O      0.701050000000     0.884400000000     0.091700000000     0          
O        O      0.682600000000     0.817400000000     0.072300000000     0          
O        O      0.750000000000     0.838000000000     0.061500000000     0          
O        O      0.700400000000     0.861200000000     0.000000000000     0          
O        O      0.590950000000     0.750000000000     0.153200000000     0          
O        O      0.567650000000     0.816750000000     0.159000000000     0          
O        O      0.571300000000     0.750000000000     0.312200000000     0          
T        Si     0.600900000000     0.541600000000     0.260700000000     0          
T        Si     0.708500000000     0.850250000000     0.056300000000     0          
T        Si     0.602100000000     0.791750000000     0.147200000000     0          
T        Si     0.576450000000     0.791400000000     0.295600000000     0          
O        O      0.948800000000     0.615900000000     0.314900000000     0          
O        O      0.952050000000     0.632350000000     0.220700000000     0          
O        O      0.500000000000     0.588400000000     0.259400000000     0          
O        O      0.932950000000     0.567050000000     0.247900000000     0          
O        O      0.615600000000     0.701050000000     0.091700000000     0          
O        O      0.682600000000     0.682600000000     0.072300000000     0          
O        O      0.662000000000     0.750000000000     0.061500000000     0          
O        O      0.638800000000     0.700400000000     0.000000000000     0          
O        O      0.750000000000     0.590950000000     0.153200000000     0          
O        O      0.683250000000     0.567650000000     0.159000000000     0          
O        O      0.750000000000     0.571300000000     0.312200000000     0          
T        Si     0.958400000000     0.600900000000     0.260700000000     0          
T        Si     0.649750000000     0.708500000000     0.056300000000     0          
T        Si     0.708250000000     0.602100000000     0.147200000000     0          
T        Si     0.708600000000     0.576450000000     0.295600000000     0          
O        O      0.615900000000     0.948800000000     0.314900000000     0          
O        O      0.632350000000     0.952050000000     0.220700000000     0          
O        O      0.701050000000     0.615600000000     0.091700000000     0          
O        O      0.567650000000     0.683250000000     0.159000000000     0          
T        Si     0.600900000000     0.958400000000     0.260700000000     0          
T        Si     0.708500000000     0.649750000000     0.056300000000     0          
T        Si     0.602100000000     0.708250000000     0.147200000000     0          
T        Si     0.576450000000     0.708600000000     0.295600000000     0          
O        O      0.551200000000     0.615900000000     0.314900000000     0          
O        O      0.547950000000     0.632350000000     0.220700000000     0          
O        O      0.884400000000     0.701050000000     0.091700000000     0          
O        O      0.816750000000     0.567650000000     0.159000000000     0          
T        Si     0.541600000000     0.600900000000     0.260700000000     0          
T        Si     0.850250000000     0.708500000000     0.056300000000     0          
T        Si     0.791750000000     0.602100000000     0.147200000000     0          
T        Si     0.791400000000     0.576450000000     0.295600000000     0          
O        O      0.884100000000     0.551200000000     0.314900000000     0          
O        O      0.867650000000     0.547950000000     0.220700000000     0          
O        O      0.798950000000     0.884400000000     0.091700000000     0          
O        O      0.932350000000     0.816750000000     0.159000000000     0          
T        Si     0.899100000000     0.541600000000     0.260700000000     0          
T        Si     0.791500000000     0.850250000000     0.056300000000     0          
T        Si     0.897900000000     0.791750000000     0.147200000000     0          
T        Si     0.923550000000     0.791400000000     0.295600000000     0          
O        O      0.948800000000     0.884100000000     0.314900000000     0          
O        O      0.952050000000     0.867650000000     0.220700000000     0          
O        O      0.615600000000     0.798950000000     0.091700000000     0          
O        O      0.683250000000     0.932350000000     0.159000000000     0          
T        Si     0.958400000000     0.899100000000     0.260700000000     0          
T        Si     0.649750000000     0.791500000000     0.056300000000     0          
T        Si     0.708250000000     0.897900000000     0.147200000000     0          
T        Si     0.708600000000     0.923550000000     0.295600000000     0          
O        O      0.615900000000     0.551200000000     0.685100000000     0          
O        O      0.632350000000     0.547950000000     0.779300000000     0          
O        O      0.701050000000     0.884400000000     0.908300000000     0          
O        O      0.567650000000     0.816750000000     0.841000000000     0          
T        Si     0.600900000000     0.541600000000     0.739300000000     0          
T        Si     0.708500000000     0.850250000000     0.943700000000     0          
T        Si     0.602100000000     0.791750000000     0.852800000000     0          
T        Si     0.576450000000     0.791400000000     0.704400000000     0          
O        O      0.948800000000     0.615900000000     0.685100000000     0          
O        O      0.952050000000     0.632350000000     0.779300000000     0          
O        O      0.615600000000     0.701050000000     0.908300000000     0          
O        O      0.683250000000     0.567650000000     0.841000000000     0          
T        Si     0.958400000000     0.600900000000     0.739300000000     0          
T        Si     0.649750000000     0.708500000000     0.943700000000     0          
T        Si     0.708250000000     0.602100000000     0.852800000000     0          
T        Si     0.708600000000     0.576450000000     0.704400000000     0          
O        O      0.884100000000     0.948800000000     0.685100000000     0          
O        O      0.867650000000     0.952050000000     0.779300000000     0          
O        O      0.798950000000     0.615600000000     0.908300000000     0          
O        O      0.932350000000     0.683250000000     0.841000000000     0          
T        Si     0.899100000000     0.958400000000     0.739300000000     0          
T        Si     0.791500000000     0.649750000000     0.943700000000     0          
T        Si     0.897900000000     0.708250000000     0.852800000000     0          
T        Si     0.923550000000     0.708600000000     0.704400000000     0          
O        O      0.551200000000     0.884100000000     0.685100000000     0          
O        O      0.547950000000     0.867650000000     0.779300000000     0          
O        O      0.884400000000     0.798950000000     0.908300000000     0          
O        O      0.816750000000     0.932350000000     0.841000000000     0          
T        Si     0.541600000000     0.899100000000     0.739300000000     0          
T        Si     0.850250000000     0.791500000000     0.943700000000     0          
T        Si     0.791750000000     0.897900000000     0.852800000000     0          
T        Si     0.791400000000     0.923550000000     0.704400000000     0          


