data_zeolite

_audit_creation_method RASPA-1.0
_audit_creation_date 2021-6-7
_audit_author_name ''

_cell_length_a    9.801
_cell_length_b    9.801
_cell_length_c    10.158
_cell_angle_alpha 90
_cell_angle_beta  90
_cell_angle_gamma 90
_cell_volume      26345.9

_symmetry_cell_setting          tetragonal
_symmetry_space_group_name_Hall 'P 1'
_symmetry_space_group_name_H-M  'P 1'
_symmetry_Int_Tables_number     1

_symmetry_equiv_pos_as_xyz 'x,y,z'

loop_
_atom_site_label
_atom_site_type_symbol
_atom_site_fract_x
_atom_site_fract_y
_atom_site_fract_z
_atom_site_charge
T        Si     0.052866666667     0.197133333333     0.041666666667     0          
T        Si     0.219533333333     0.302866666667     0.125000000000     0          
T        Si     0.113800000000     0.136200000000     0.208333333333     0          
T        Si     0.280466666667     0.030466666667     0.291666666667     0          
T        Si     0.052866666667     0.136200000000     0.291666666667     0          
T        Si     0.280466666667     0.302866666667     0.041666666667     0          
T        Si     0.113800000000     0.197133333333     0.125000000000     0          
T        Si     0.219533333333     0.030466666667     0.208333333333     0          
T        Si     0.280466666667     0.136200000000     0.291666666667     0          
T        Si     0.113800000000     0.030466666667     0.208333333333     0          
T        Si     0.219533333333     0.197133333333     0.125000000000     0          
T        Si     0.052866666667     0.302866666667     0.041666666667     0          
T        Si     0.280466666667     0.197133333333     0.041666666667     0          
T        Si     0.052866666667     0.030466666667     0.291666666667     0          
T        Si     0.219533333333     0.136200000000     0.208333333333     0          
T        Si     0.113800000000     0.302866666667     0.125000000000     0          
T        Si     0.052866666667     0.197133333333     0.375000000000     0          
T        Si     0.219533333333     0.302866666667     0.458333333333     0          
T        Si     0.113800000000     0.136200000000     0.541666666667     0          
T        Si     0.280466666667     0.030466666667     0.625000000000     0          
T        Si     0.052866666667     0.136200000000     0.625000000000     0          
T        Si     0.280466666667     0.302866666667     0.375000000000     0          
T        Si     0.113800000000     0.197133333333     0.458333333333     0          
T        Si     0.219533333333     0.030466666667     0.541666666667     0          
T        Si     0.280466666667     0.136200000000     0.625000000000     0          
T        Si     0.113800000000     0.030466666667     0.541666666667     0          
T        Si     0.219533333333     0.197133333333     0.458333333333     0          
T        Si     0.052866666667     0.302866666667     0.375000000000     0          
T        Si     0.280466666667     0.197133333333     0.375000000000     0          
T        Si     0.052866666667     0.030466666667     0.625000000000     0          
T        Si     0.219533333333     0.136200000000     0.541666666667     0          
T        Si     0.113800000000     0.302866666667     0.458333333333     0          
T        Si     0.052866666667     0.197133333333     0.708333333333     0          
T        Si     0.219533333333     0.302866666667     0.791666666667     0          
T        Si     0.113800000000     0.136200000000     0.875000000000     0          
T        Si     0.280466666667     0.030466666667     0.958333333333     0          
T        Si     0.052866666667     0.136200000000     0.958333333333     0          
T        Si     0.280466666667     0.302866666667     0.708333333333     0          
T        Si     0.113800000000     0.197133333333     0.791666666667     0          
T        Si     0.219533333333     0.030466666667     0.875000000000     0          
T        Si     0.280466666667     0.136200000000     0.958333333333     0          
T        Si     0.113800000000     0.030466666667     0.875000000000     0          
T        Si     0.219533333333     0.197133333333     0.791666666667     0          
T        Si     0.052866666667     0.302866666667     0.708333333333     0          
T        Si     0.280466666667     0.197133333333     0.708333333333     0          
T        Si     0.052866666667     0.030466666667     0.958333333333     0          
T        Si     0.219533333333     0.136200000000     0.875000000000     0          
T        Si     0.113800000000     0.302866666667     0.791666666667     0          
T        Si     0.052866666667     0.530466666667     0.041666666667     0          
T        Si     0.219533333333     0.636200000000     0.125000000000     0          
T        Si     0.113800000000     0.469533333333     0.208333333333     0          
T        Si     0.280466666667     0.363800000000     0.291666666667     0          
T        Si     0.052866666667     0.469533333333     0.291666666667     0          
T        Si     0.280466666667     0.636200000000     0.041666666667     0          
T        Si     0.113800000000     0.530466666667     0.125000000000     0          
T        Si     0.219533333333     0.363800000000     0.208333333333     0          
T        Si     0.280466666667     0.469533333333     0.291666666667     0          
T        Si     0.113800000000     0.363800000000     0.208333333333     0          
T        Si     0.219533333333     0.530466666667     0.125000000000     0          
T        Si     0.052866666667     0.636200000000     0.041666666667     0          
T        Si     0.280466666667     0.530466666667     0.041666666667     0          
T        Si     0.052866666667     0.363800000000     0.291666666667     0          
T        Si     0.219533333333     0.469533333333     0.208333333333     0          
T        Si     0.113800000000     0.636200000000     0.125000000000     0          
T        Si     0.052866666667     0.530466666667     0.375000000000     0          
T        Si     0.219533333333     0.636200000000     0.458333333333     0          
T        Si     0.113800000000     0.469533333333     0.541666666667     0          
T        Si     0.280466666667     0.363800000000     0.625000000000     0          
T        Si     0.052866666667     0.469533333333     0.625000000000     0          
T        Si     0.280466666667     0.636200000000     0.375000000000     0          
T        Si     0.113800000000     0.530466666667     0.458333333333     0          
T        Si     0.219533333333     0.363800000000     0.541666666667     0          
T        Si     0.280466666667     0.469533333333     0.625000000000     0          
T        Si     0.113800000000     0.363800000000     0.541666666667     0          
T        Si     0.219533333333     0.530466666667     0.458333333333     0          
T        Si     0.052866666667     0.636200000000     0.375000000000     0          
T        Si     0.280466666667     0.530466666667     0.375000000000     0          
T        Si     0.052866666667     0.363800000000     0.625000000000     0          
T        Si     0.219533333333     0.469533333333     0.541666666667     0          
T        Si     0.113800000000     0.636200000000     0.458333333333     0          
T        Si     0.052866666667     0.530466666667     0.708333333333     0          
T        Si     0.219533333333     0.636200000000     0.791666666667     0          
T        Si     0.113800000000     0.469533333333     0.875000000000     0          
T        Si     0.280466666667     0.363800000000     0.958333333333     0          
T        Si     0.052866666667     0.469533333333     0.958333333333     0          
T        Si     0.280466666667     0.636200000000     0.708333333333     0          
T        Si     0.113800000000     0.530466666667     0.791666666667     0          
T        Si     0.219533333333     0.363800000000     0.875000000000     0          
T        Si     0.280466666667     0.469533333333     0.958333333333     0          
T        Si     0.113800000000     0.363800000000     0.875000000000     0          
T        Si     0.219533333333     0.530466666667     0.791666666667     0          
T        Si     0.052866666667     0.636200000000     0.708333333333     0          
T        Si     0.280466666667     0.530466666667     0.708333333333     0          
T        Si     0.052866666667     0.363800000000     0.958333333333     0          
T        Si     0.219533333333     0.469533333333     0.875000000000     0          
T        Si     0.113800000000     0.636200000000     0.791666666667     0          
T        Si     0.052866666667     0.863800000000     0.041666666667     0          
T        Si     0.219533333333     0.969533333333     0.125000000000     0          
T        Si     0.113800000000     0.802866666667     0.208333333333     0          
T        Si     0.280466666667     0.697133333333     0.291666666667     0          
T        Si     0.052866666667     0.802866666667     0.291666666667     0          
T        Si     0.280466666667     0.969533333333     0.041666666667     0          
T        Si     0.113800000000     0.863800000000     0.125000000000     0          
T        Si     0.219533333333     0.697133333333     0.208333333333     0          
T        Si     0.280466666667     0.802866666667     0.291666666667     0          
T        Si     0.113800000000     0.697133333333     0.208333333333     0          
T        Si     0.219533333333     0.863800000000     0.125000000000     0          
T        Si     0.052866666667     0.969533333333     0.041666666667     0          
T        Si     0.280466666667     0.863800000000     0.041666666667     0          
T        Si     0.052866666667     0.697133333333     0.291666666667     0          
T        Si     0.219533333333     0.802866666667     0.208333333333     0          
T        Si     0.113800000000     0.969533333333     0.125000000000     0          
T        Si     0.052866666667     0.863800000000     0.375000000000     0          
T        Si     0.219533333333     0.969533333333     0.458333333333     0          
T        Si     0.113800000000     0.802866666667     0.541666666667     0          
T        Si     0.280466666667     0.697133333333     0.625000000000     0          
T        Si     0.052866666667     0.802866666667     0.625000000000     0          
T        Si     0.280466666667     0.969533333333     0.375000000000     0          
T        Si     0.113800000000     0.863800000000     0.458333333333     0          
T        Si     0.219533333333     0.697133333333     0.541666666667     0          
T        Si     0.280466666667     0.802866666667     0.625000000000     0          
T        Si     0.113800000000     0.697133333333     0.541666666667     0          
T        Si     0.219533333333     0.863800000000     0.458333333333     0          
T        Si     0.052866666667     0.969533333333     0.375000000000     0          
T        Si     0.280466666667     0.863800000000     0.375000000000     0          
T        Si     0.052866666667     0.697133333333     0.625000000000     0          
T        Si     0.219533333333     0.802866666667     0.541666666667     0          
T        Si     0.113800000000     0.969533333333     0.458333333333     0          
T        Si     0.052866666667     0.863800000000     0.708333333333     0          
T        Si     0.219533333333     0.969533333333     0.791666666667     0          
T        Si     0.113800000000     0.802866666667     0.875000000000     0          
T        Si     0.280466666667     0.697133333333     0.958333333333     0          
T        Si     0.052866666667     0.802866666667     0.958333333333     0          
T        Si     0.280466666667     0.969533333333     0.708333333333     0          
T        Si     0.113800000000     0.863800000000     0.791666666667     0          
T        Si     0.219533333333     0.697133333333     0.875000000000     0          
T        Si     0.280466666667     0.802866666667     0.958333333333     0          
T        Si     0.113800000000     0.697133333333     0.875000000000     0          
T        Si     0.219533333333     0.863800000000     0.791666666667     0          
T        Si     0.052866666667     0.969533333333     0.708333333333     0          
T        Si     0.280466666667     0.863800000000     0.708333333333     0          
T        Si     0.052866666667     0.697133333333     0.958333333333     0          
T        Si     0.219533333333     0.802866666667     0.875000000000     0          
T        Si     0.113800000000     0.969533333333     0.791666666667     0          
T        Si     0.386200000000     0.197133333333     0.041666666667     0          
T        Si     0.552866666667     0.302866666667     0.125000000000     0          
T        Si     0.447133333333     0.136200000000     0.208333333333     0          
T        Si     0.613800000000     0.030466666667     0.291666666667     0          
T        Si     0.386200000000     0.136200000000     0.291666666667     0          
T        Si     0.613800000000     0.302866666667     0.041666666667     0          
T        Si     0.447133333333     0.197133333333     0.125000000000     0          
T        Si     0.552866666667     0.030466666667     0.208333333333     0          
T        Si     0.613800000000     0.136200000000     0.291666666667     0          
T        Si     0.447133333333     0.030466666667     0.208333333333     0          
T        Si     0.552866666667     0.197133333333     0.125000000000     0          
T        Si     0.386200000000     0.302866666667     0.041666666667     0          
T        Si     0.613800000000     0.197133333333     0.041666666667     0          
T        Si     0.386200000000     0.030466666667     0.291666666667     0          
T        Si     0.552866666667     0.136200000000     0.208333333333     0          
T        Si     0.447133333333     0.302866666667     0.125000000000     0          
T        Si     0.386200000000     0.197133333333     0.375000000000     0          
T        Si     0.552866666667     0.302866666667     0.458333333333     0          
T        Si     0.447133333333     0.136200000000     0.541666666667     0          
T        Si     0.613800000000     0.030466666667     0.625000000000     0          
T        Si     0.386200000000     0.136200000000     0.625000000000     0          
T        Si     0.613800000000     0.302866666667     0.375000000000     0          
T        Si     0.447133333333     0.197133333333     0.458333333333     0          
T        Si     0.552866666667     0.030466666667     0.541666666667     0          
T        Si     0.613800000000     0.136200000000     0.625000000000     0          
T        Si     0.447133333333     0.030466666667     0.541666666667     0          
T        Si     0.552866666667     0.197133333333     0.458333333333     0          
T        Si     0.386200000000     0.302866666667     0.375000000000     0          
T        Si     0.613800000000     0.197133333333     0.375000000000     0          
T        Si     0.386200000000     0.030466666667     0.625000000000     0          
T        Si     0.552866666667     0.136200000000     0.541666666667     0          
T        Si     0.447133333333     0.302866666667     0.458333333333     0          
T        Si     0.386200000000     0.197133333333     0.708333333333     0          
T        Si     0.552866666667     0.302866666667     0.791666666667     0          
T        Si     0.447133333333     0.136200000000     0.875000000000     0          
T        Si     0.613800000000     0.030466666667     0.958333333333     0          
T        Si     0.386200000000     0.136200000000     0.958333333333     0          
T        Si     0.613800000000     0.302866666667     0.708333333333     0          
T        Si     0.447133333333     0.197133333333     0.791666666667     0          
T        Si     0.552866666667     0.030466666667     0.875000000000     0          
T        Si     0.613800000000     0.136200000000     0.958333333333     0          
T        Si     0.447133333333     0.030466666667     0.875000000000     0          
T        Si     0.552866666667     0.197133333333     0.791666666667     0          
T        Si     0.386200000000     0.302866666667     0.708333333333     0          
T        Si     0.613800000000     0.197133333333     0.708333333333     0          
T        Si     0.386200000000     0.030466666667     0.958333333333     0          
T        Si     0.552866666667     0.136200000000     0.875000000000     0          
T        Si     0.447133333333     0.302866666667     0.791666666667     0          
T        Si     0.386200000000     0.530466666667     0.041666666667     0          
T        Si     0.552866666667     0.636200000000     0.125000000000     0          
T        Si     0.447133333333     0.469533333333     0.208333333333     0          
T        Si     0.613800000000     0.363800000000     0.291666666667     0          
T        Si     0.386200000000     0.469533333333     0.291666666667     0          
T        Si     0.613800000000     0.636200000000     0.041666666667     0          
T        Si     0.447133333333     0.530466666667     0.125000000000     0          
T        Si     0.552866666667     0.363800000000     0.208333333333     0          
T        Si     0.613800000000     0.469533333333     0.291666666667     0          
T        Si     0.447133333333     0.363800000000     0.208333333333     0          
T        Si     0.552866666667     0.530466666667     0.125000000000     0          
T        Si     0.386200000000     0.636200000000     0.041666666667     0          
T        Si     0.613800000000     0.530466666667     0.041666666667     0          
T        Si     0.386200000000     0.363800000000     0.291666666667     0          
T        Si     0.552866666667     0.469533333333     0.208333333333     0          
T        Si     0.447133333333     0.636200000000     0.125000000000     0          
T        Si     0.386200000000     0.530466666667     0.375000000000     0          
T        Si     0.552866666667     0.636200000000     0.458333333333     0          
T        Si     0.447133333333     0.469533333333     0.541666666667     0          
T        Si     0.613800000000     0.363800000000     0.625000000000     0          
T        Si     0.386200000000     0.469533333333     0.625000000000     0          
T        Si     0.613800000000     0.636200000000     0.375000000000     0          
T        Si     0.447133333333     0.530466666667     0.458333333333     0          
T        Si     0.552866666667     0.363800000000     0.541666666667     0          
T        Si     0.613800000000     0.469533333333     0.625000000000     0          
T        Si     0.447133333333     0.363800000000     0.541666666667     0          
T        Si     0.552866666667     0.530466666667     0.458333333333     0          
T        Si     0.386200000000     0.636200000000     0.375000000000     0          
T        Si     0.613800000000     0.530466666667     0.375000000000     0          
T        Si     0.386200000000     0.363800000000     0.625000000000     0          
T        Si     0.552866666667     0.469533333333     0.541666666667     0          
T        Si     0.447133333333     0.636200000000     0.458333333333     0          
T        Si     0.386200000000     0.530466666667     0.708333333333     0          
T        Si     0.552866666667     0.636200000000     0.791666666667     0          
T        Si     0.447133333333     0.469533333333     0.875000000000     0          
T        Si     0.613800000000     0.363800000000     0.958333333333     0          
T        Si     0.386200000000     0.469533333333     0.958333333333     0          
T        Si     0.613800000000     0.636200000000     0.708333333333     0          
T        Si     0.447133333333     0.530466666667     0.791666666667     0          
T        Si     0.552866666667     0.363800000000     0.875000000000     0          
T        Si     0.613800000000     0.469533333333     0.958333333333     0          
T        Si     0.447133333333     0.363800000000     0.875000000000     0          
T        Si     0.552866666667     0.530466666667     0.791666666667     0          
T        Si     0.386200000000     0.636200000000     0.708333333333     0          
T        Si     0.613800000000     0.530466666667     0.708333333333     0          
T        Si     0.386200000000     0.363800000000     0.958333333333     0          
T        Si     0.552866666667     0.469533333333     0.875000000000     0          
T        Si     0.447133333333     0.636200000000     0.791666666667     0          
T        Si     0.386200000000     0.863800000000     0.041666666667     0          
T        Si     0.552866666667     0.969533333333     0.125000000000     0          
T        Si     0.447133333333     0.802866666667     0.208333333333     0          
T        Si     0.613800000000     0.697133333333     0.291666666667     0          
T        Si     0.386200000000     0.802866666667     0.291666666667     0          
T        Si     0.613800000000     0.969533333333     0.041666666667     0          
T        Si     0.447133333333     0.863800000000     0.125000000000     0          
T        Si     0.552866666667     0.697133333333     0.208333333333     0          
T        Si     0.613800000000     0.802866666667     0.291666666667     0          
T        Si     0.447133333333     0.697133333333     0.208333333333     0          
T        Si     0.552866666667     0.863800000000     0.125000000000     0          
T        Si     0.386200000000     0.969533333333     0.041666666667     0          
T        Si     0.613800000000     0.863800000000     0.041666666667     0          
T        Si     0.386200000000     0.697133333333     0.291666666667     0          
T        Si     0.552866666667     0.802866666667     0.208333333333     0          
T        Si     0.447133333333     0.969533333333     0.125000000000     0          
T        Si     0.386200000000     0.863800000000     0.375000000000     0          
T        Si     0.552866666667     0.969533333333     0.458333333333     0          
T        Si     0.447133333333     0.802866666667     0.541666666667     0          
T        Si     0.613800000000     0.697133333333     0.625000000000     0          
T        Si     0.386200000000     0.802866666667     0.625000000000     0          
T        Si     0.613800000000     0.969533333333     0.375000000000     0          
T        Si     0.447133333333     0.863800000000     0.458333333333     0          
T        Si     0.552866666667     0.697133333333     0.541666666667     0          
T        Si     0.613800000000     0.802866666667     0.625000000000     0          
T        Si     0.447133333333     0.697133333333     0.541666666667     0          
T        Si     0.552866666667     0.863800000000     0.458333333333     0          
T        Si     0.386200000000     0.969533333333     0.375000000000     0          
T        Si     0.613800000000     0.863800000000     0.375000000000     0          
T        Si     0.386200000000     0.697133333333     0.625000000000     0          
T        Si     0.552866666667     0.802866666667     0.541666666667     0          
T        Si     0.447133333333     0.969533333333     0.458333333333     0          
T        Si     0.386200000000     0.863800000000     0.708333333333     0          
T        Si     0.552866666667     0.969533333333     0.791666666667     0          
T        Si     0.447133333333     0.802866666667     0.875000000000     0          
T        Si     0.613800000000     0.697133333333     0.958333333333     0          
T        Si     0.386200000000     0.802866666667     0.958333333333     0          
T        Si     0.613800000000     0.969533333333     0.708333333333     0          
T        Si     0.447133333333     0.863800000000     0.791666666667     0          
T        Si     0.552866666667     0.697133333333     0.875000000000     0          
T        Si     0.613800000000     0.802866666667     0.958333333333     0          
T        Si     0.447133333333     0.697133333333     0.875000000000     0          
T        Si     0.552866666667     0.863800000000     0.791666666667     0          
T        Si     0.386200000000     0.969533333333     0.708333333333     0          
T        Si     0.613800000000     0.863800000000     0.708333333333     0          
T        Si     0.386200000000     0.697133333333     0.958333333333     0          
T        Si     0.552866666667     0.802866666667     0.875000000000     0          
T        Si     0.447133333333     0.969533333333     0.791666666667     0          
T        Si     0.719533333333     0.197133333333     0.041666666667     0          
T        Si     0.886200000000     0.302866666667     0.125000000000     0          
T        Si     0.780466666667     0.136200000000     0.208333333333     0          
T        Si     0.947133333333     0.030466666667     0.291666666667     0          
T        Si     0.719533333333     0.136200000000     0.291666666667     0          
T        Si     0.947133333333     0.302866666667     0.041666666667     0          
T        Si     0.780466666667     0.197133333333     0.125000000000     0          
T        Si     0.886200000000     0.030466666667     0.208333333333     0          
T        Si     0.947133333333     0.136200000000     0.291666666667     0          
T        Si     0.780466666667     0.030466666667     0.208333333333     0          
T        Si     0.886200000000     0.197133333333     0.125000000000     0          
T        Si     0.719533333333     0.302866666667     0.041666666667     0          
T        Si     0.947133333333     0.197133333333     0.041666666667     0          
T        Si     0.719533333333     0.030466666667     0.291666666667     0          
T        Si     0.886200000000     0.136200000000     0.208333333333     0          
T        Si     0.780466666667     0.302866666667     0.125000000000     0          
T        Si     0.719533333333     0.197133333333     0.375000000000     0          
T        Si     0.886200000000     0.302866666667     0.458333333333     0          
T        Si     0.780466666667     0.136200000000     0.541666666667     0          
T        Si     0.947133333333     0.030466666667     0.625000000000     0          
T        Si     0.719533333333     0.136200000000     0.625000000000     0          
T        Si     0.947133333333     0.302866666667     0.375000000000     0          
T        Si     0.780466666667     0.197133333333     0.458333333333     0          
T        Si     0.886200000000     0.030466666667     0.541666666667     0          
T        Si     0.947133333333     0.136200000000     0.625000000000     0          
T        Si     0.780466666667     0.030466666667     0.541666666667     0          
T        Si     0.886200000000     0.197133333333     0.458333333333     0          
T        Si     0.719533333333     0.302866666667     0.375000000000     0          
T        Si     0.947133333333     0.197133333333     0.375000000000     0          
T        Si     0.719533333333     0.030466666667     0.625000000000     0          
T        Si     0.886200000000     0.136200000000     0.541666666667     0          
T        Si     0.780466666667     0.302866666667     0.458333333333     0          
T        Si     0.719533333333     0.197133333333     0.708333333333     0          
T        Si     0.886200000000     0.302866666667     0.791666666667     0          
T        Si     0.780466666667     0.136200000000     0.875000000000     0          
T        Si     0.947133333333     0.030466666667     0.958333333333     0          
T        Si     0.719533333333     0.136200000000     0.958333333333     0          
T        Si     0.947133333333     0.302866666667     0.708333333333     0          
T        Si     0.780466666667     0.197133333333     0.791666666667     0          
T        Si     0.886200000000     0.030466666667     0.875000000000     0          
T        Si     0.947133333333     0.136200000000     0.958333333333     0          
T        Si     0.780466666667     0.030466666667     0.875000000000     0          
T        Si     0.886200000000     0.197133333333     0.791666666667     0          
T        Si     0.719533333333     0.302866666667     0.708333333333     0          
T        Si     0.947133333333     0.197133333333     0.708333333333     0          
T        Si     0.719533333333     0.030466666667     0.958333333333     0          
T        Si     0.886200000000     0.136200000000     0.875000000000     0          
T        Si     0.780466666667     0.302866666667     0.791666666667     0          
T        Si     0.719533333333     0.530466666667     0.041666666667     0          
T        Si     0.886200000000     0.636200000000     0.125000000000     0          
T        Si     0.780466666667     0.469533333333     0.208333333333     0          
T        Si     0.947133333333     0.363800000000     0.291666666667     0          
T        Si     0.719533333333     0.469533333333     0.291666666667     0          
T        Si     0.947133333333     0.636200000000     0.041666666667     0          
T        Si     0.780466666667     0.530466666667     0.125000000000     0          
T        Si     0.886200000000     0.363800000000     0.208333333333     0          
T        Si     0.947133333333     0.469533333333     0.291666666667     0          
T        Si     0.780466666667     0.363800000000     0.208333333333     0          
T        Si     0.886200000000     0.530466666667     0.125000000000     0          
T        Si     0.719533333333     0.636200000000     0.041666666667     0          
T        Si     0.947133333333     0.530466666667     0.041666666667     0          
T        Si     0.719533333333     0.363800000000     0.291666666667     0          
T        Si     0.886200000000     0.469533333333     0.208333333333     0          
T        Si     0.780466666667     0.636200000000     0.125000000000     0          
T        Si     0.719533333333     0.530466666667     0.375000000000     0          
T        Si     0.886200000000     0.636200000000     0.458333333333     0          
T        Si     0.780466666667     0.469533333333     0.541666666667     0          
T        Si     0.947133333333     0.363800000000     0.625000000000     0          
T        Si     0.719533333333     0.469533333333     0.625000000000     0          
T        Si     0.947133333333     0.636200000000     0.375000000000     0          
T        Si     0.780466666667     0.530466666667     0.458333333333     0          
T        Si     0.886200000000     0.363800000000     0.541666666667     0          
T        Si     0.947133333333     0.469533333333     0.625000000000     0          
T        Si     0.780466666667     0.363800000000     0.541666666667     0          
T        Si     0.886200000000     0.530466666667     0.458333333333     0          
T        Si     0.719533333333     0.636200000000     0.375000000000     0          
T        Si     0.947133333333     0.530466666667     0.375000000000     0          
T        Si     0.719533333333     0.363800000000     0.625000000000     0          
T        Si     0.886200000000     0.469533333333     0.541666666667     0          
T        Si     0.780466666667     0.636200000000     0.458333333333     0          
T        Si     0.719533333333     0.530466666667     0.708333333333     0          
T        Si     0.886200000000     0.636200000000     0.791666666667     0          
T        Si     0.780466666667     0.469533333333     0.875000000000     0          
T        Si     0.947133333333     0.363800000000     0.958333333333     0          
T        Si     0.719533333333     0.469533333333     0.958333333333     0          
T        Si     0.947133333333     0.636200000000     0.708333333333     0          
T        Si     0.780466666667     0.530466666667     0.791666666667     0          
T        Si     0.886200000000     0.363800000000     0.875000000000     0          
T        Si     0.947133333333     0.469533333333     0.958333333333     0          
T        Si     0.780466666667     0.363800000000     0.875000000000     0          
T        Si     0.886200000000     0.530466666667     0.791666666667     0          
T        Si     0.719533333333     0.636200000000     0.708333333333     0          
T        Si     0.947133333333     0.530466666667     0.708333333333     0          
T        Si     0.719533333333     0.363800000000     0.958333333333     0          
T        Si     0.886200000000     0.469533333333     0.875000000000     0          
T        Si     0.780466666667     0.636200000000     0.791666666667     0          
T        Si     0.719533333333     0.863800000000     0.041666666667     0          
T        Si     0.886200000000     0.969533333333     0.125000000000     0          
T        Si     0.780466666667     0.802866666667     0.208333333333     0          
T        Si     0.947133333333     0.697133333333     0.291666666667     0          
T        Si     0.719533333333     0.802866666667     0.291666666667     0          
T        Si     0.947133333333     0.969533333333     0.041666666667     0          
T        Si     0.780466666667     0.863800000000     0.125000000000     0          
T        Si     0.886200000000     0.697133333333     0.208333333333     0          
T        Si     0.947133333333     0.802866666667     0.291666666667     0          
T        Si     0.780466666667     0.697133333333     0.208333333333     0          
T        Si     0.886200000000     0.863800000000     0.125000000000     0          
T        Si     0.719533333333     0.969533333333     0.041666666667     0          
T        Si     0.947133333333     0.863800000000     0.041666666667     0          
T        Si     0.719533333333     0.697133333333     0.291666666667     0          
T        Si     0.886200000000     0.802866666667     0.208333333333     0          
T        Si     0.780466666667     0.969533333333     0.125000000000     0          
T        Si     0.719533333333     0.863800000000     0.375000000000     0          
T        Si     0.886200000000     0.969533333333     0.458333333333     0          
T        Si     0.780466666667     0.802866666667     0.541666666667     0          
T        Si     0.947133333333     0.697133333333     0.625000000000     0          
T        Si     0.719533333333     0.802866666667     0.625000000000     0          
T        Si     0.947133333333     0.969533333333     0.375000000000     0          
T        Si     0.780466666667     0.863800000000     0.458333333333     0          
T        Si     0.886200000000     0.697133333333     0.541666666667     0          
T        Si     0.947133333333     0.802866666667     0.625000000000     0          
T        Si     0.780466666667     0.697133333333     0.541666666667     0          
T        Si     0.886200000000     0.863800000000     0.458333333333     0          
T        Si     0.719533333333     0.969533333333     0.375000000000     0          
T        Si     0.947133333333     0.863800000000     0.375000000000     0          
T        Si     0.719533333333     0.697133333333     0.625000000000     0          
T        Si     0.886200000000     0.802866666667     0.541666666667     0          
T        Si     0.780466666667     0.969533333333     0.458333333333     0          
T        Si     0.719533333333     0.863800000000     0.708333333333     0          
T        Si     0.886200000000     0.969533333333     0.791666666667     0          
T        Si     0.780466666667     0.802866666667     0.875000000000     0          
T        Si     0.947133333333     0.697133333333     0.958333333333     0          
T        Si     0.719533333333     0.802866666667     0.958333333333     0          
T        Si     0.947133333333     0.969533333333     0.708333333333     0          
T        Si     0.780466666667     0.863800000000     0.791666666667     0          
T        Si     0.886200000000     0.697133333333     0.875000000000     0          
T        Si     0.947133333333     0.802866666667     0.958333333333     0          
T        Si     0.780466666667     0.697133333333     0.875000000000     0          
T        Si     0.886200000000     0.863800000000     0.791666666667     0          
T        Si     0.719533333333     0.969533333333     0.708333333333     0          
T        Si     0.947133333333     0.863800000000     0.708333333333     0          
T        Si     0.719533333333     0.697133333333     0.958333333333     0          
T        Si     0.886200000000     0.802866666667     0.875000000000     0          
T        Si     0.780466666667     0.969533333333     0.791666666667     0          
O        O      0.000000000000     0.188900000000     0.052833333333     0          
O        O      0.083333333333     0.182866666667     0.083333333333     0          
O        O      0.227766666667     0.250000000000     0.136166666667     0          
O        O      0.233800000000     0.000000000000     0.166666666667     0          
O        O      0.166666666667     0.144433333333     0.219500000000     0          
O        O      0.083333333333     0.150466666667     0.250000000000     0          
O        O      0.272233333333     0.083333333333     0.302833333333     0          
O        O      0.266200000000     0.000000000000     0.000000000000     0          
O        O      0.000000000000     0.144433333333     0.280500000000     0          
O        O      0.272233333333     0.250000000000     0.030500000000     0          
O        O      0.166666666667     0.188900000000     0.113833333333     0          
O        O      0.227766666667     0.083333333333     0.197166666667     0          
O        O      0.250000000000     0.150466666667     0.250000000000     0          
O        O      0.105566666667     0.083333333333     0.197166666667     0          
O        O      0.099533333333     0.000000000000     0.166666666667     0          
O        O      0.250000000000     0.182866666667     0.083333333333     0          
O        O      0.061100000000     0.250000000000     0.030500000000     0          
O        O      0.067133333333     0.000000000000     0.000000000000     0          
O        O      0.061100000000     0.083333333333     0.302833333333     0          
O        O      0.105566666667     0.250000000000     0.136166666667     0          
O        O      0.166666666667     0.022233333333     0.219500000000     0          
O        O      0.250000000000     0.016200000000     0.250000000000     0          
O        O      0.067133333333     0.166666666667     0.000000000000     0          
O        O      0.000000000000     0.311100000000     0.052833333333     0          
O        O      0.250000000000     0.317133333333     0.083333333333     0          
O        O      0.099533333333     0.166666666667     0.166666666667     0          
O        O      0.166666666667     0.311100000000     0.113833333333     0          
O        O      0.000000000000     0.022233333333     0.280500000000     0          
O        O      0.083333333333     0.317133333333     0.083333333333     0          
O        O      0.266200000000     0.166666666667     0.000000000000     0          
O        O      0.083333333333     0.016200000000     0.250000000000     0          
O        O      0.233800000000     0.166666666667     0.166666666667     0          
O        O      0.000000000000     0.188900000000     0.386166666667     0          
O        O      0.083333333333     0.182866666667     0.416666666667     0          
O        O      0.227766666667     0.250000000000     0.469500000000     0          
O        O      0.233800000000     0.000000000000     0.500000000000     0          
O        O      0.166666666667     0.144433333333     0.552833333333     0          
O        O      0.083333333333     0.150466666667     0.583333333333     0          
O        O      0.272233333333     0.083333333333     0.636166666667     0          
O        O      0.266200000000     0.000000000000     0.333333333333     0          
O        O      0.000000000000     0.144433333333     0.613833333333     0          
O        O      0.272233333333     0.250000000000     0.363833333333     0          
O        O      0.166666666667     0.188900000000     0.447166666667     0          
O        O      0.227766666667     0.083333333333     0.530500000000     0          
O        O      0.250000000000     0.150466666667     0.583333333333     0          
O        O      0.105566666667     0.083333333333     0.530500000000     0          
O        O      0.099533333333     0.000000000000     0.500000000000     0          
O        O      0.250000000000     0.182866666667     0.416666666667     0          
O        O      0.061100000000     0.250000000000     0.363833333333     0          
O        O      0.067133333333     0.000000000000     0.333333333333     0          
O        O      0.061100000000     0.083333333333     0.636166666667     0          
O        O      0.105566666667     0.250000000000     0.469500000000     0          
O        O      0.166666666667     0.022233333333     0.552833333333     0          
O        O      0.250000000000     0.016200000000     0.583333333333     0          
O        O      0.067133333333     0.166666666667     0.333333333333     0          
O        O      0.000000000000     0.311100000000     0.386166666667     0          
O        O      0.250000000000     0.317133333333     0.416666666667     0          
O        O      0.099533333333     0.166666666667     0.500000000000     0          
O        O      0.166666666667     0.311100000000     0.447166666667     0          
O        O      0.000000000000     0.022233333333     0.613833333333     0          
O        O      0.083333333333     0.317133333333     0.416666666667     0          
O        O      0.266200000000     0.166666666667     0.333333333333     0          
O        O      0.083333333333     0.016200000000     0.583333333333     0          
O        O      0.233800000000     0.166666666667     0.500000000000     0          
O        O      0.000000000000     0.188900000000     0.719500000000     0          
O        O      0.083333333333     0.182866666667     0.750000000000     0          
O        O      0.227766666667     0.250000000000     0.802833333333     0          
O        O      0.233800000000     0.000000000000     0.833333333333     0          
O        O      0.166666666667     0.144433333333     0.886166666667     0          
O        O      0.083333333333     0.150466666667     0.916666666667     0          
O        O      0.272233333333     0.083333333333     0.969500000000     0          
O        O      0.266200000000     0.000000000000     0.666666666667     0          
O        O      0.000000000000     0.144433333333     0.947166666667     0          
O        O      0.272233333333     0.250000000000     0.697166666667     0          
O        O      0.166666666667     0.188900000000     0.780500000000     0          
O        O      0.227766666667     0.083333333333     0.863833333333     0          
O        O      0.250000000000     0.150466666667     0.916666666667     0          
O        O      0.105566666667     0.083333333333     0.863833333333     0          
O        O      0.099533333333     0.000000000000     0.833333333333     0          
O        O      0.250000000000     0.182866666667     0.750000000000     0          
O        O      0.061100000000     0.250000000000     0.697166666667     0          
O        O      0.067133333333     0.000000000000     0.666666666667     0          
O        O      0.061100000000     0.083333333333     0.969500000000     0          
O        O      0.105566666667     0.250000000000     0.802833333333     0          
O        O      0.166666666667     0.022233333333     0.886166666667     0          
O        O      0.250000000000     0.016200000000     0.916666666667     0          
O        O      0.067133333333     0.166666666667     0.666666666667     0          
O        O      0.000000000000     0.311100000000     0.719500000000     0          
O        O      0.250000000000     0.317133333333     0.750000000000     0          
O        O      0.099533333333     0.166666666667     0.833333333333     0          
O        O      0.166666666667     0.311100000000     0.780500000000     0          
O        O      0.000000000000     0.022233333333     0.947166666667     0          
O        O      0.083333333333     0.317133333333     0.750000000000     0          
O        O      0.266200000000     0.166666666667     0.666666666667     0          
O        O      0.083333333333     0.016200000000     0.916666666667     0          
O        O      0.233800000000     0.166666666667     0.833333333333     0          
O        O      0.000000000000     0.522233333333     0.052833333333     0          
O        O      0.083333333333     0.516200000000     0.083333333333     0          
O        O      0.227766666667     0.583333333333     0.136166666667     0          
O        O      0.233800000000     0.333333333333     0.166666666667     0          
O        O      0.166666666667     0.477766666667     0.219500000000     0          
O        O      0.083333333333     0.483800000000     0.250000000000     0          
O        O      0.272233333333     0.416666666667     0.302833333333     0          
O        O      0.266200000000     0.333333333333     0.000000000000     0          
O        O      0.000000000000     0.477766666667     0.280500000000     0          
O        O      0.272233333333     0.583333333333     0.030500000000     0          
O        O      0.166666666667     0.522233333333     0.113833333333     0          
O        O      0.227766666667     0.416666666667     0.197166666667     0          
O        O      0.250000000000     0.483800000000     0.250000000000     0          
O        O      0.105566666667     0.416666666667     0.197166666667     0          
O        O      0.099533333333     0.333333333333     0.166666666667     0          
O        O      0.250000000000     0.516200000000     0.083333333333     0          
O        O      0.061100000000     0.583333333333     0.030500000000     0          
O        O      0.067133333333     0.333333333333     0.000000000000     0          
O        O      0.061100000000     0.416666666667     0.302833333333     0          
O        O      0.105566666667     0.583333333333     0.136166666667     0          
O        O      0.166666666667     0.355566666667     0.219500000000     0          
O        O      0.250000000000     0.349533333333     0.250000000000     0          
O        O      0.067133333333     0.500000000000     0.000000000000     0          
O        O      0.000000000000     0.644433333333     0.052833333333     0          
O        O      0.250000000000     0.650466666667     0.083333333333     0          
O        O      0.099533333333     0.500000000000     0.166666666667     0          
O        O      0.166666666667     0.644433333333     0.113833333333     0          
O        O      0.000000000000     0.355566666667     0.280500000000     0          
O        O      0.083333333333     0.650466666667     0.083333333333     0          
O        O      0.266200000000     0.500000000000     0.000000000000     0          
O        O      0.083333333333     0.349533333333     0.250000000000     0          
O        O      0.233800000000     0.500000000000     0.166666666667     0          
O        O      0.000000000000     0.522233333333     0.386166666667     0          
O        O      0.083333333333     0.516200000000     0.416666666667     0          
O        O      0.227766666667     0.583333333333     0.469500000000     0          
O        O      0.233800000000     0.333333333333     0.500000000000     0          
O        O      0.166666666667     0.477766666667     0.552833333333     0          
O        O      0.083333333333     0.483800000000     0.583333333333     0          
O        O      0.272233333333     0.416666666667     0.636166666667     0          
O        O      0.266200000000     0.333333333333     0.333333333333     0          
O        O      0.000000000000     0.477766666667     0.613833333333     0          
O        O      0.272233333333     0.583333333333     0.363833333333     0          
O        O      0.166666666667     0.522233333333     0.447166666667     0          
O        O      0.227766666667     0.416666666667     0.530500000000     0          
O        O      0.250000000000     0.483800000000     0.583333333333     0          
O        O      0.105566666667     0.416666666667     0.530500000000     0          
O        O      0.099533333333     0.333333333333     0.500000000000     0          
O        O      0.250000000000     0.516200000000     0.416666666667     0          
O        O      0.061100000000     0.583333333333     0.363833333333     0          
O        O      0.067133333333     0.333333333333     0.333333333333     0          
O        O      0.061100000000     0.416666666667     0.636166666667     0          
O        O      0.105566666667     0.583333333333     0.469500000000     0          
O        O      0.166666666667     0.355566666667     0.552833333333     0          
O        O      0.250000000000     0.349533333333     0.583333333333     0          
O        O      0.067133333333     0.500000000000     0.333333333333     0          
O        O      0.000000000000     0.644433333333     0.386166666667     0          
O        O      0.250000000000     0.650466666667     0.416666666667     0          
O        O      0.099533333333     0.500000000000     0.500000000000     0          
O        O      0.166666666667     0.644433333333     0.447166666667     0          
O        O      0.000000000000     0.355566666667     0.613833333333     0          
O        O      0.083333333333     0.650466666667     0.416666666667     0          
O        O      0.266200000000     0.500000000000     0.333333333333     0          
O        O      0.083333333333     0.349533333333     0.583333333333     0          
O        O      0.233800000000     0.500000000000     0.500000000000     0          
O        O      0.000000000000     0.522233333333     0.719500000000     0          
O        O      0.083333333333     0.516200000000     0.750000000000     0          
O        O      0.227766666667     0.583333333333     0.802833333333     0          
O        O      0.233800000000     0.333333333333     0.833333333333     0          
O        O      0.166666666667     0.477766666667     0.886166666667     0          
O        O      0.083333333333     0.483800000000     0.916666666667     0          
O        O      0.272233333333     0.416666666667     0.969500000000     0          
O        O      0.266200000000     0.333333333333     0.666666666667     0          
O        O      0.000000000000     0.477766666667     0.947166666667     0          
O        O      0.272233333333     0.583333333333     0.697166666667     0          
O        O      0.166666666667     0.522233333333     0.780500000000     0          
O        O      0.227766666667     0.416666666667     0.863833333333     0          
O        O      0.250000000000     0.483800000000     0.916666666667     0          
O        O      0.105566666667     0.416666666667     0.863833333333     0          
O        O      0.099533333333     0.333333333333     0.833333333333     0          
O        O      0.250000000000     0.516200000000     0.750000000000     0          
O        O      0.061100000000     0.583333333333     0.697166666667     0          
O        O      0.067133333333     0.333333333333     0.666666666667     0          
O        O      0.061100000000     0.416666666667     0.969500000000     0          
O        O      0.105566666667     0.583333333333     0.802833333333     0          
O        O      0.166666666667     0.355566666667     0.886166666667     0          
O        O      0.250000000000     0.349533333333     0.916666666667     0          
O        O      0.067133333333     0.500000000000     0.666666666667     0          
O        O      0.000000000000     0.644433333333     0.719500000000     0          
O        O      0.250000000000     0.650466666667     0.750000000000     0          
O        O      0.099533333333     0.500000000000     0.833333333333     0          
O        O      0.166666666667     0.644433333333     0.780500000000     0          
O        O      0.000000000000     0.355566666667     0.947166666667     0          
O        O      0.083333333333     0.650466666667     0.750000000000     0          
O        O      0.266200000000     0.500000000000     0.666666666667     0          
O        O      0.083333333333     0.349533333333     0.916666666667     0          
O        O      0.233800000000     0.500000000000     0.833333333333     0          
O        O      0.000000000000     0.855566666667     0.052833333333     0          
O        O      0.083333333333     0.849533333333     0.083333333333     0          
O        O      0.227766666667     0.916666666667     0.136166666667     0          
O        O      0.233800000000     0.666666666667     0.166666666667     0          
O        O      0.166666666667     0.811100000000     0.219500000000     0          
O        O      0.083333333333     0.817133333333     0.250000000000     0          
O        O      0.272233333333     0.750000000000     0.302833333333     0          
O        O      0.266200000000     0.666666666667     0.000000000000     0          
O        O      0.000000000000     0.811100000000     0.280500000000     0          
O        O      0.272233333333     0.916666666667     0.030500000000     0          
O        O      0.166666666667     0.855566666667     0.113833333333     0          
O        O      0.227766666667     0.750000000000     0.197166666667     0          
O        O      0.250000000000     0.817133333333     0.250000000000     0          
O        O      0.105566666667     0.750000000000     0.197166666667     0          
O        O      0.099533333333     0.666666666667     0.166666666667     0          
O        O      0.250000000000     0.849533333333     0.083333333333     0          
O        O      0.061100000000     0.916666666667     0.030500000000     0          
O        O      0.067133333333     0.666666666667     0.000000000000     0          
O        O      0.061100000000     0.750000000000     0.302833333333     0          
O        O      0.105566666667     0.916666666667     0.136166666667     0          
O        O      0.166666666667     0.688900000000     0.219500000000     0          
O        O      0.250000000000     0.682866666667     0.250000000000     0          
O        O      0.067133333333     0.833333333333     0.000000000000     0          
O        O      0.000000000000     0.977766666667     0.052833333333     0          
O        O      0.250000000000     0.983800000000     0.083333333333     0          
O        O      0.099533333333     0.833333333333     0.166666666667     0          
O        O      0.166666666667     0.977766666667     0.113833333333     0          
O        O      0.000000000000     0.688900000000     0.280500000000     0          
O        O      0.083333333333     0.983800000000     0.083333333333     0          
O        O      0.266200000000     0.833333333333     0.000000000000     0          
O        O      0.083333333333     0.682866666667     0.250000000000     0          
O        O      0.233800000000     0.833333333333     0.166666666667     0          
O        O      0.000000000000     0.855566666667     0.386166666667     0          
O        O      0.083333333333     0.849533333333     0.416666666667     0          
O        O      0.227766666667     0.916666666667     0.469500000000     0          
O        O      0.233800000000     0.666666666667     0.500000000000     0          
O        O      0.166666666667     0.811100000000     0.552833333333     0          
O        O      0.083333333333     0.817133333333     0.583333333333     0          
O        O      0.272233333333     0.750000000000     0.636166666667     0          
O        O      0.266200000000     0.666666666667     0.333333333333     0          
O        O      0.000000000000     0.811100000000     0.613833333333     0          
O        O      0.272233333333     0.916666666667     0.363833333333     0          
O        O      0.166666666667     0.855566666667     0.447166666667     0          
O        O      0.227766666667     0.750000000000     0.530500000000     0          
O        O      0.250000000000     0.817133333333     0.583333333333     0          
O        O      0.105566666667     0.750000000000     0.530500000000     0          
O        O      0.099533333333     0.666666666667     0.500000000000     0          
O        O      0.250000000000     0.849533333333     0.416666666667     0          
O        O      0.061100000000     0.916666666667     0.363833333333     0          
O        O      0.067133333333     0.666666666667     0.333333333333     0          
O        O      0.061100000000     0.750000000000     0.636166666667     0          
O        O      0.105566666667     0.916666666667     0.469500000000     0          
O        O      0.166666666667     0.688900000000     0.552833333333     0          
O        O      0.250000000000     0.682866666667     0.583333333333     0          
O        O      0.067133333333     0.833333333333     0.333333333333     0          
O        O      0.000000000000     0.977766666667     0.386166666667     0          
O        O      0.250000000000     0.983800000000     0.416666666667     0          
O        O      0.099533333333     0.833333333333     0.500000000000     0          
O        O      0.166666666667     0.977766666667     0.447166666667     0          
O        O      0.000000000000     0.688900000000     0.613833333333     0          
O        O      0.083333333333     0.983800000000     0.416666666667     0          
O        O      0.266200000000     0.833333333333     0.333333333333     0          
O        O      0.083333333333     0.682866666667     0.583333333333     0          
O        O      0.233800000000     0.833333333333     0.500000000000     0          
O        O      0.000000000000     0.855566666667     0.719500000000     0          
O        O      0.083333333333     0.849533333333     0.750000000000     0          
O        O      0.227766666667     0.916666666667     0.802833333333     0          
O        O      0.233800000000     0.666666666667     0.833333333333     0          
O        O      0.166666666667     0.811100000000     0.886166666667     0          
O        O      0.083333333333     0.817133333333     0.916666666667     0          
O        O      0.272233333333     0.750000000000     0.969500000000     0          
O        O      0.266200000000     0.666666666667     0.666666666667     0          
O        O      0.000000000000     0.811100000000     0.947166666667     0          
O        O      0.272233333333     0.916666666667     0.697166666667     0          
O        O      0.166666666667     0.855566666667     0.780500000000     0          
O        O      0.227766666667     0.750000000000     0.863833333333     0          
O        O      0.250000000000     0.817133333333     0.916666666667     0          
O        O      0.105566666667     0.750000000000     0.863833333333     0          
O        O      0.099533333333     0.666666666667     0.833333333333     0          
O        O      0.250000000000     0.849533333333     0.750000000000     0          
O        O      0.061100000000     0.916666666667     0.697166666667     0          
O        O      0.067133333333     0.666666666667     0.666666666667     0          
O        O      0.061100000000     0.750000000000     0.969500000000     0          
O        O      0.105566666667     0.916666666667     0.802833333333     0          
O        O      0.166666666667     0.688900000000     0.886166666667     0          
O        O      0.250000000000     0.682866666667     0.916666666667     0          
O        O      0.067133333333     0.833333333333     0.666666666667     0          
O        O      0.000000000000     0.977766666667     0.719500000000     0          
O        O      0.250000000000     0.983800000000     0.750000000000     0          
O        O      0.099533333333     0.833333333333     0.833333333333     0          
O        O      0.166666666667     0.977766666667     0.780500000000     0          
O        O      0.000000000000     0.688900000000     0.947166666667     0          
O        O      0.083333333333     0.983800000000     0.750000000000     0          
O        O      0.266200000000     0.833333333333     0.666666666667     0          
O        O      0.083333333333     0.682866666667     0.916666666667     0          
O        O      0.233800000000     0.833333333333     0.833333333333     0          
O        O      0.333333333333     0.188900000000     0.052833333333     0          
O        O      0.416666666667     0.182866666667     0.083333333333     0          
O        O      0.561100000000     0.250000000000     0.136166666667     0          
O        O      0.567133333333     0.000000000000     0.166666666667     0          
O        O      0.500000000000     0.144433333333     0.219500000000     0          
O        O      0.416666666667     0.150466666667     0.250000000000     0          
O        O      0.605566666667     0.083333333333     0.302833333333     0          
O        O      0.599533333333     0.000000000000     0.000000000000     0          
O        O      0.333333333333     0.144433333333     0.280500000000     0          
O        O      0.605566666667     0.250000000000     0.030500000000     0          
O        O      0.500000000000     0.188900000000     0.113833333333     0          
O        O      0.561100000000     0.083333333333     0.197166666667     0          
O        O      0.583333333333     0.150466666667     0.250000000000     0          
O        O      0.438900000000     0.083333333333     0.197166666667     0          
O        O      0.432866666667     0.000000000000     0.166666666667     0          
O        O      0.583333333333     0.182866666667     0.083333333333     0          
O        O      0.394433333333     0.250000000000     0.030500000000     0          
O        O      0.400466666667     0.000000000000     0.000000000000     0          
O        O      0.394433333333     0.083333333333     0.302833333333     0          
O        O      0.438900000000     0.250000000000     0.136166666667     0          
O        O      0.500000000000     0.022233333333     0.219500000000     0          
O        O      0.583333333333     0.016200000000     0.250000000000     0          
O        O      0.400466666667     0.166666666667     0.000000000000     0          
O        O      0.333333333333     0.311100000000     0.052833333333     0          
O        O      0.583333333333     0.317133333333     0.083333333333     0          
O        O      0.432866666667     0.166666666667     0.166666666667     0          
O        O      0.500000000000     0.311100000000     0.113833333333     0          
O        O      0.333333333333     0.022233333333     0.280500000000     0          
O        O      0.416666666667     0.317133333333     0.083333333333     0          
O        O      0.599533333333     0.166666666667     0.000000000000     0          
O        O      0.416666666667     0.016200000000     0.250000000000     0          
O        O      0.567133333333     0.166666666667     0.166666666667     0          
O        O      0.333333333333     0.188900000000     0.386166666667     0          
O        O      0.416666666667     0.182866666667     0.416666666667     0          
O        O      0.561100000000     0.250000000000     0.469500000000     0          
O        O      0.567133333333     0.000000000000     0.500000000000     0          
O        O      0.500000000000     0.144433333333     0.552833333333     0          
O        O      0.416666666667     0.150466666667     0.583333333333     0          
O        O      0.605566666667     0.083333333333     0.636166666667     0          
O        O      0.599533333333     0.000000000000     0.333333333333     0          
O        O      0.333333333333     0.144433333333     0.613833333333     0          
O        O      0.605566666667     0.250000000000     0.363833333333     0          
O        O      0.500000000000     0.188900000000     0.447166666667     0          
O        O      0.561100000000     0.083333333333     0.530500000000     0          
O        O      0.583333333333     0.150466666667     0.583333333333     0          
O        O      0.438900000000     0.083333333333     0.530500000000     0          
O        O      0.432866666667     0.000000000000     0.500000000000     0          
O        O      0.583333333333     0.182866666667     0.416666666667     0          
O        O      0.394433333333     0.250000000000     0.363833333333     0          
O        O      0.400466666667     0.000000000000     0.333333333333     0          
O        O      0.394433333333     0.083333333333     0.636166666667     0          
O        O      0.438900000000     0.250000000000     0.469500000000     0          
O        O      0.500000000000     0.022233333333     0.552833333333     0          
O        O      0.583333333333     0.016200000000     0.583333333333     0          
O        O      0.400466666667     0.166666666667     0.333333333333     0          
O        O      0.333333333333     0.311100000000     0.386166666667     0          
O        O      0.583333333333     0.317133333333     0.416666666667     0          
O        O      0.432866666667     0.166666666667     0.500000000000     0          
O        O      0.500000000000     0.311100000000     0.447166666667     0          
O        O      0.333333333333     0.022233333333     0.613833333333     0          
O        O      0.416666666667     0.317133333333     0.416666666667     0          
O        O      0.599533333333     0.166666666667     0.333333333333     0          
O        O      0.416666666667     0.016200000000     0.583333333333     0          
O        O      0.567133333333     0.166666666667     0.500000000000     0          
O        O      0.333333333333     0.188900000000     0.719500000000     0          
O        O      0.416666666667     0.182866666667     0.750000000000     0          
O        O      0.561100000000     0.250000000000     0.802833333333     0          
O        O      0.567133333333     0.000000000000     0.833333333333     0          
O        O      0.500000000000     0.144433333333     0.886166666667     0          
O        O      0.416666666667     0.150466666667     0.916666666667     0          
O        O      0.605566666667     0.083333333333     0.969500000000     0          
O        O      0.599533333333     0.000000000000     0.666666666667     0          
O        O      0.333333333333     0.144433333333     0.947166666667     0          
O        O      0.605566666667     0.250000000000     0.697166666667     0          
O        O      0.500000000000     0.188900000000     0.780500000000     0          
O        O      0.561100000000     0.083333333333     0.863833333333     0          
O        O      0.583333333333     0.150466666667     0.916666666667     0          
O        O      0.438900000000     0.083333333333     0.863833333333     0          
O        O      0.432866666667     0.000000000000     0.833333333333     0          
O        O      0.583333333333     0.182866666667     0.750000000000     0          
O        O      0.394433333333     0.250000000000     0.697166666667     0          
O        O      0.400466666667     0.000000000000     0.666666666667     0          
O        O      0.394433333333     0.083333333333     0.969500000000     0          
O        O      0.438900000000     0.250000000000     0.802833333333     0          
O        O      0.500000000000     0.022233333333     0.886166666667     0          
O        O      0.583333333333     0.016200000000     0.916666666667     0          
O        O      0.400466666667     0.166666666667     0.666666666667     0          
O        O      0.333333333333     0.311100000000     0.719500000000     0          
O        O      0.583333333333     0.317133333333     0.750000000000     0          
O        O      0.432866666667     0.166666666667     0.833333333333     0          
O        O      0.500000000000     0.311100000000     0.780500000000     0          
O        O      0.333333333333     0.022233333333     0.947166666667     0          
O        O      0.416666666667     0.317133333333     0.750000000000     0          
O        O      0.599533333333     0.166666666667     0.666666666667     0          
O        O      0.416666666667     0.016200000000     0.916666666667     0          
O        O      0.567133333333     0.166666666667     0.833333333333     0          
O        O      0.333333333333     0.522233333333     0.052833333333     0          
O        O      0.416666666667     0.516200000000     0.083333333333     0          
O        O      0.561100000000     0.583333333333     0.136166666667     0          
O        O      0.567133333333     0.333333333333     0.166666666667     0          
O        O      0.500000000000     0.477766666667     0.219500000000     0          
O        O      0.416666666667     0.483800000000     0.250000000000     0          
O        O      0.605566666667     0.416666666667     0.302833333333     0          
O        O      0.599533333333     0.333333333333     0.000000000000     0          
O        O      0.333333333333     0.477766666667     0.280500000000     0          
O        O      0.605566666667     0.583333333333     0.030500000000     0          
O        O      0.500000000000     0.522233333333     0.113833333333     0          
O        O      0.561100000000     0.416666666667     0.197166666667     0          
O        O      0.583333333333     0.483800000000     0.250000000000     0          
O        O      0.438900000000     0.416666666667     0.197166666667     0          
O        O      0.432866666667     0.333333333333     0.166666666667     0          
O        O      0.583333333333     0.516200000000     0.083333333333     0          
O        O      0.394433333333     0.583333333333     0.030500000000     0          
O        O      0.400466666667     0.333333333333     0.000000000000     0          
O        O      0.394433333333     0.416666666667     0.302833333333     0          
O        O      0.438900000000     0.583333333333     0.136166666667     0          
O        O      0.500000000000     0.355566666667     0.219500000000     0          
O        O      0.583333333333     0.349533333333     0.250000000000     0          
O        O      0.400466666667     0.500000000000     0.000000000000     0          
O        O      0.333333333333     0.644433333333     0.052833333333     0          
O        O      0.583333333333     0.650466666667     0.083333333333     0          
O        O      0.432866666667     0.500000000000     0.166666666667     0          
O        O      0.500000000000     0.644433333333     0.113833333333     0          
O        O      0.333333333333     0.355566666667     0.280500000000     0          
O        O      0.416666666667     0.650466666667     0.083333333333     0          
O        O      0.599533333333     0.500000000000     0.000000000000     0          
O        O      0.416666666667     0.349533333333     0.250000000000     0          
O        O      0.567133333333     0.500000000000     0.166666666667     0          
O        O      0.333333333333     0.522233333333     0.386166666667     0          
O        O      0.416666666667     0.516200000000     0.416666666667     0          
O        O      0.561100000000     0.583333333333     0.469500000000     0          
O        O      0.567133333333     0.333333333333     0.500000000000     0          
O        O      0.500000000000     0.477766666667     0.552833333333     0          
O        O      0.416666666667     0.483800000000     0.583333333333     0          
O        O      0.605566666667     0.416666666667     0.636166666667     0          
O        O      0.599533333333     0.333333333333     0.333333333333     0          
O        O      0.333333333333     0.477766666667     0.613833333333     0          
O        O      0.605566666667     0.583333333333     0.363833333333     0          
O        O      0.500000000000     0.522233333333     0.447166666667     0          
O        O      0.561100000000     0.416666666667     0.530500000000     0          
O        O      0.583333333333     0.483800000000     0.583333333333     0          
O        O      0.438900000000     0.416666666667     0.530500000000     0          
O        O      0.432866666667     0.333333333333     0.500000000000     0          
O        O      0.583333333333     0.516200000000     0.416666666667     0          
O        O      0.394433333333     0.583333333333     0.363833333333     0          
O        O      0.400466666667     0.333333333333     0.333333333333     0          
O        O      0.394433333333     0.416666666667     0.636166666667     0          
O        O      0.438900000000     0.583333333333     0.469500000000     0          
O        O      0.500000000000     0.355566666667     0.552833333333     0          
O        O      0.583333333333     0.349533333333     0.583333333333     0          
O        O      0.400466666667     0.500000000000     0.333333333333     0          
O        O      0.333333333333     0.644433333333     0.386166666667     0          
O        O      0.583333333333     0.650466666667     0.416666666667     0          
O        O      0.432866666667     0.500000000000     0.500000000000     0          
O        O      0.500000000000     0.644433333333     0.447166666667     0          
O        O      0.333333333333     0.355566666667     0.613833333333     0          
O        O      0.416666666667     0.650466666667     0.416666666667     0          
O        O      0.599533333333     0.500000000000     0.333333333333     0          
O        O      0.416666666667     0.349533333333     0.583333333333     0          
O        O      0.567133333333     0.500000000000     0.500000000000     0          
O        O      0.333333333333     0.522233333333     0.719500000000     0          
O        O      0.416666666667     0.516200000000     0.750000000000     0          
O        O      0.561100000000     0.583333333333     0.802833333333     0          
O        O      0.567133333333     0.333333333333     0.833333333333     0          
O        O      0.500000000000     0.477766666667     0.886166666667     0          
O        O      0.416666666667     0.483800000000     0.916666666667     0          
O        O      0.605566666667     0.416666666667     0.969500000000     0          
O        O      0.599533333333     0.333333333333     0.666666666667     0          
O        O      0.333333333333     0.477766666667     0.947166666667     0          
O        O      0.605566666667     0.583333333333     0.697166666667     0          
O        O      0.500000000000     0.522233333333     0.780500000000     0          
O        O      0.561100000000     0.416666666667     0.863833333333     0          
O        O      0.583333333333     0.483800000000     0.916666666667     0          
O        O      0.438900000000     0.416666666667     0.863833333333     0          
O        O      0.432866666667     0.333333333333     0.833333333333     0          
O        O      0.583333333333     0.516200000000     0.750000000000     0          
O        O      0.394433333333     0.583333333333     0.697166666667     0          
O        O      0.400466666667     0.333333333333     0.666666666667     0          
O        O      0.394433333333     0.416666666667     0.969500000000     0          
O        O      0.438900000000     0.583333333333     0.802833333333     0          
O        O      0.500000000000     0.355566666667     0.886166666667     0          
O        O      0.583333333333     0.349533333333     0.916666666667     0          
O        O      0.400466666667     0.500000000000     0.666666666667     0          
O        O      0.333333333333     0.644433333333     0.719500000000     0          
O        O      0.583333333333     0.650466666667     0.750000000000     0          
O        O      0.432866666667     0.500000000000     0.833333333333     0          
O        O      0.500000000000     0.644433333333     0.780500000000     0          
O        O      0.333333333333     0.355566666667     0.947166666667     0          
O        O      0.416666666667     0.650466666667     0.750000000000     0          
O        O      0.599533333333     0.500000000000     0.666666666667     0          
O        O      0.416666666667     0.349533333333     0.916666666667     0          
O        O      0.567133333333     0.500000000000     0.833333333333     0          
O        O      0.333333333333     0.855566666667     0.052833333333     0          
O        O      0.416666666667     0.849533333333     0.083333333333     0          
O        O      0.561100000000     0.916666666667     0.136166666667     0          
O        O      0.567133333333     0.666666666667     0.166666666667     0          
O        O      0.500000000000     0.811100000000     0.219500000000     0          
O        O      0.416666666667     0.817133333333     0.250000000000     0          
O        O      0.605566666667     0.750000000000     0.302833333333     0          
O        O      0.599533333333     0.666666666667     0.000000000000     0          
O        O      0.333333333333     0.811100000000     0.280500000000     0          
O        O      0.605566666667     0.916666666667     0.030500000000     0          
O        O      0.500000000000     0.855566666667     0.113833333333     0          
O        O      0.561100000000     0.750000000000     0.197166666667     0          
O        O      0.583333333333     0.817133333333     0.250000000000     0          
O        O      0.438900000000     0.750000000000     0.197166666667     0          
O        O      0.432866666667     0.666666666667     0.166666666667     0          
O        O      0.583333333333     0.849533333333     0.083333333333     0          
O        O      0.394433333333     0.916666666667     0.030500000000     0          
O        O      0.400466666667     0.666666666667     0.000000000000     0          
O        O      0.394433333333     0.750000000000     0.302833333333     0          
O        O      0.438900000000     0.916666666667     0.136166666667     0          
O        O      0.500000000000     0.688900000000     0.219500000000     0          
O        O      0.583333333333     0.682866666667     0.250000000000     0          
O        O      0.400466666667     0.833333333333     0.000000000000     0          
O        O      0.333333333333     0.977766666667     0.052833333333     0          
O        O      0.583333333333     0.983800000000     0.083333333333     0          
O        O      0.432866666667     0.833333333333     0.166666666667     0          
O        O      0.500000000000     0.977766666667     0.113833333333     0          
O        O      0.333333333333     0.688900000000     0.280500000000     0          
O        O      0.416666666667     0.983800000000     0.083333333333     0          
O        O      0.599533333333     0.833333333333     0.000000000000     0          
O        O      0.416666666667     0.682866666667     0.250000000000     0          
O        O      0.567133333333     0.833333333333     0.166666666667     0          
O        O      0.333333333333     0.855566666667     0.386166666667     0          
O        O      0.416666666667     0.849533333333     0.416666666667     0          
O        O      0.561100000000     0.916666666667     0.469500000000     0          
O        O      0.567133333333     0.666666666667     0.500000000000     0          
O        O      0.500000000000     0.811100000000     0.552833333333     0          
O        O      0.416666666667     0.817133333333     0.583333333333     0          
O        O      0.605566666667     0.750000000000     0.636166666667     0          
O        O      0.599533333333     0.666666666667     0.333333333333     0          
O        O      0.333333333333     0.811100000000     0.613833333333     0          
O        O      0.605566666667     0.916666666667     0.363833333333     0          
O        O      0.500000000000     0.855566666667     0.447166666667     0          
O        O      0.561100000000     0.750000000000     0.530500000000     0          
O        O      0.583333333333     0.817133333333     0.583333333333     0          
O        O      0.438900000000     0.750000000000     0.530500000000     0          
O        O      0.432866666667     0.666666666667     0.500000000000     0          
O        O      0.583333333333     0.849533333333     0.416666666667     0          
O        O      0.394433333333     0.916666666667     0.363833333333     0          
O        O      0.400466666667     0.666666666667     0.333333333333     0          
O        O      0.394433333333     0.750000000000     0.636166666667     0          
O        O      0.438900000000     0.916666666667     0.469500000000     0          
O        O      0.500000000000     0.688900000000     0.552833333333     0          
O        O      0.583333333333     0.682866666667     0.583333333333     0          
O        O      0.400466666667     0.833333333333     0.333333333333     0          
O        O      0.333333333333     0.977766666667     0.386166666667     0          
O        O      0.583333333333     0.983800000000     0.416666666667     0          
O        O      0.432866666667     0.833333333333     0.500000000000     0          
O        O      0.500000000000     0.977766666667     0.447166666667     0          
O        O      0.333333333333     0.688900000000     0.613833333333     0          
O        O      0.416666666667     0.983800000000     0.416666666667     0          
O        O      0.599533333333     0.833333333333     0.333333333333     0          
O        O      0.416666666667     0.682866666667     0.583333333333     0          
O        O      0.567133333333     0.833333333333     0.500000000000     0          
O        O      0.333333333333     0.855566666667     0.719500000000     0          
O        O      0.416666666667     0.849533333333     0.750000000000     0          
O        O      0.561100000000     0.916666666667     0.802833333333     0          
O        O      0.567133333333     0.666666666667     0.833333333333     0          
O        O      0.500000000000     0.811100000000     0.886166666667     0          
O        O      0.416666666667     0.817133333333     0.916666666667     0          
O        O      0.605566666667     0.750000000000     0.969500000000     0          
O        O      0.599533333333     0.666666666667     0.666666666667     0          
O        O      0.333333333333     0.811100000000     0.947166666667     0          
O        O      0.605566666667     0.916666666667     0.697166666667     0          
O        O      0.500000000000     0.855566666667     0.780500000000     0          
O        O      0.561100000000     0.750000000000     0.863833333333     0          
O        O      0.583333333333     0.817133333333     0.916666666667     0          
O        O      0.438900000000     0.750000000000     0.863833333333     0          
O        O      0.432866666667     0.666666666667     0.833333333333     0          
O        O      0.583333333333     0.849533333333     0.750000000000     0          
O        O      0.394433333333     0.916666666667     0.697166666667     0          
O        O      0.400466666667     0.666666666667     0.666666666667     0          
O        O      0.394433333333     0.750000000000     0.969500000000     0          
O        O      0.438900000000     0.916666666667     0.802833333333     0          
O        O      0.500000000000     0.688900000000     0.886166666667     0          
O        O      0.583333333333     0.682866666667     0.916666666667     0          
O        O      0.400466666667     0.833333333333     0.666666666667     0          
O        O      0.333333333333     0.977766666667     0.719500000000     0          
O        O      0.583333333333     0.983800000000     0.750000000000     0          
O        O      0.432866666667     0.833333333333     0.833333333333     0          
O        O      0.500000000000     0.977766666667     0.780500000000     0          
O        O      0.333333333333     0.688900000000     0.947166666667     0          
O        O      0.416666666667     0.983800000000     0.750000000000     0          
O        O      0.599533333333     0.833333333333     0.666666666667     0          
O        O      0.416666666667     0.682866666667     0.916666666667     0          
O        O      0.567133333333     0.833333333333     0.833333333333     0          
O        O      0.666666666667     0.188900000000     0.052833333333     0          
O        O      0.750000000000     0.182866666667     0.083333333333     0          
O        O      0.894433333333     0.250000000000     0.136166666667     0          
O        O      0.900466666667     0.000000000000     0.166666666667     0          
O        O      0.833333333333     0.144433333333     0.219500000000     0          
O        O      0.750000000000     0.150466666667     0.250000000000     0          
O        O      0.938900000000     0.083333333333     0.302833333333     0          
O        O      0.932866666667     0.000000000000     0.000000000000     0          
O        O      0.666666666667     0.144433333333     0.280500000000     0          
O        O      0.938900000000     0.250000000000     0.030500000000     0          
O        O      0.833333333333     0.188900000000     0.113833333333     0          
O        O      0.894433333333     0.083333333333     0.197166666667     0          
O        O      0.916666666667     0.150466666667     0.250000000000     0          
O        O      0.772233333333     0.083333333333     0.197166666667     0          
O        O      0.766200000000     0.000000000000     0.166666666667     0          
O        O      0.916666666667     0.182866666667     0.083333333333     0          
O        O      0.727766666667     0.250000000000     0.030500000000     0          
O        O      0.733800000000     0.000000000000     0.000000000000     0          
O        O      0.727766666667     0.083333333333     0.302833333333     0          
O        O      0.772233333333     0.250000000000     0.136166666667     0          
O        O      0.833333333333     0.022233333333     0.219500000000     0          
O        O      0.916666666667     0.016200000000     0.250000000000     0          
O        O      0.733800000000     0.166666666667     0.000000000000     0          
O        O      0.666666666667     0.311100000000     0.052833333333     0          
O        O      0.916666666667     0.317133333333     0.083333333333     0          
O        O      0.766200000000     0.166666666667     0.166666666667     0          
O        O      0.833333333333     0.311100000000     0.113833333333     0          
O        O      0.666666666667     0.022233333333     0.280500000000     0          
O        O      0.750000000000     0.317133333333     0.083333333333     0          
O        O      0.932866666667     0.166666666667     0.000000000000     0          
O        O      0.750000000000     0.016200000000     0.250000000000     0          
O        O      0.900466666667     0.166666666667     0.166666666667     0          
O        O      0.666666666667     0.188900000000     0.386166666667     0          
O        O      0.750000000000     0.182866666667     0.416666666667     0          
O        O      0.894433333333     0.250000000000     0.469500000000     0          
O        O      0.900466666667     0.000000000000     0.500000000000     0          
O        O      0.833333333333     0.144433333333     0.552833333333     0          
O        O      0.750000000000     0.150466666667     0.583333333333     0          
O        O      0.938900000000     0.083333333333     0.636166666667     0          
O        O      0.932866666667     0.000000000000     0.333333333333     0          
O        O      0.666666666667     0.144433333333     0.613833333333     0          
O        O      0.938900000000     0.250000000000     0.363833333333     0          
O        O      0.833333333333     0.188900000000     0.447166666667     0          
O        O      0.894433333333     0.083333333333     0.530500000000     0          
O        O      0.916666666667     0.150466666667     0.583333333333     0          
O        O      0.772233333333     0.083333333333     0.530500000000     0          
O        O      0.766200000000     0.000000000000     0.500000000000     0          
O        O      0.916666666667     0.182866666667     0.416666666667     0          
O        O      0.727766666667     0.250000000000     0.363833333333     0          
O        O      0.733800000000     0.000000000000     0.333333333333     0          
O        O      0.727766666667     0.083333333333     0.636166666667     0          
O        O      0.772233333333     0.250000000000     0.469500000000     0          
O        O      0.833333333333     0.022233333333     0.552833333333     0          
O        O      0.916666666667     0.016200000000     0.583333333333     0          
O        O      0.733800000000     0.166666666667     0.333333333333     0          
O        O      0.666666666667     0.311100000000     0.386166666667     0          
O        O      0.916666666667     0.317133333333     0.416666666667     0          
O        O      0.766200000000     0.166666666667     0.500000000000     0          
O        O      0.833333333333     0.311100000000     0.447166666667     0          
O        O      0.666666666667     0.022233333333     0.613833333333     0          
O        O      0.750000000000     0.317133333333     0.416666666667     0          
O        O      0.932866666667     0.166666666667     0.333333333333     0          
O        O      0.750000000000     0.016200000000     0.583333333333     0          
O        O      0.900466666667     0.166666666667     0.500000000000     0          
O        O      0.666666666667     0.188900000000     0.719500000000     0          
O        O      0.750000000000     0.182866666667     0.750000000000     0          
O        O      0.894433333333     0.250000000000     0.802833333333     0          
O        O      0.900466666667     0.000000000000     0.833333333333     0          
O        O      0.833333333333     0.144433333333     0.886166666667     0          
O        O      0.750000000000     0.150466666667     0.916666666667     0          
O        O      0.938900000000     0.083333333333     0.969500000000     0          
O        O      0.932866666667     0.000000000000     0.666666666667     0          
O        O      0.666666666667     0.144433333333     0.947166666667     0          
O        O      0.938900000000     0.250000000000     0.697166666667     0          
O        O      0.833333333333     0.188900000000     0.780500000000     0          
O        O      0.894433333333     0.083333333333     0.863833333333     0          
O        O      0.916666666667     0.150466666667     0.916666666667     0          
O        O      0.772233333333     0.083333333333     0.863833333333     0          
O        O      0.766200000000     0.000000000000     0.833333333333     0          
O        O      0.916666666667     0.182866666667     0.750000000000     0          
O        O      0.727766666667     0.250000000000     0.697166666667     0          
O        O      0.733800000000     0.000000000000     0.666666666667     0          
O        O      0.727766666667     0.083333333333     0.969500000000     0          
O        O      0.772233333333     0.250000000000     0.802833333333     0          
O        O      0.833333333333     0.022233333333     0.886166666667     0          
O        O      0.916666666667     0.016200000000     0.916666666667     0          
O        O      0.733800000000     0.166666666667     0.666666666667     0          
O        O      0.666666666667     0.311100000000     0.719500000000     0          
O        O      0.916666666667     0.317133333333     0.750000000000     0          
O        O      0.766200000000     0.166666666667     0.833333333333     0          
O        O      0.833333333333     0.311100000000     0.780500000000     0          
O        O      0.666666666667     0.022233333333     0.947166666667     0          
O        O      0.750000000000     0.317133333333     0.750000000000     0          
O        O      0.932866666667     0.166666666667     0.666666666667     0          
O        O      0.750000000000     0.016200000000     0.916666666667     0          
O        O      0.900466666667     0.166666666667     0.833333333333     0          
O        O      0.666666666667     0.522233333333     0.052833333333     0          
O        O      0.750000000000     0.516200000000     0.083333333333     0          
O        O      0.894433333333     0.583333333333     0.136166666667     0          
O        O      0.900466666667     0.333333333333     0.166666666667     0          
O        O      0.833333333333     0.477766666667     0.219500000000     0          
O        O      0.750000000000     0.483800000000     0.250000000000     0          
O        O      0.938900000000     0.416666666667     0.302833333333     0          
O        O      0.932866666667     0.333333333333     0.000000000000     0          
O        O      0.666666666667     0.477766666667     0.280500000000     0          
O        O      0.938900000000     0.583333333333     0.030500000000     0          
O        O      0.833333333333     0.522233333333     0.113833333333     0          
O        O      0.894433333333     0.416666666667     0.197166666667     0          
O        O      0.916666666667     0.483800000000     0.250000000000     0          
O        O      0.772233333333     0.416666666667     0.197166666667     0          
O        O      0.766200000000     0.333333333333     0.166666666667     0          
O        O      0.916666666667     0.516200000000     0.083333333333     0          
O        O      0.727766666667     0.583333333333     0.030500000000     0          
O        O      0.733800000000     0.333333333333     0.000000000000     0          
O        O      0.727766666667     0.416666666667     0.302833333333     0          
O        O      0.772233333333     0.583333333333     0.136166666667     0          
O        O      0.833333333333     0.355566666667     0.219500000000     0          
O        O      0.916666666667     0.349533333333     0.250000000000     0          
O        O      0.733800000000     0.500000000000     0.000000000000     0          
O        O      0.666666666667     0.644433333333     0.052833333333     0          
O        O      0.916666666667     0.650466666667     0.083333333333     0          
O        O      0.766200000000     0.500000000000     0.166666666667     0          
O        O      0.833333333333     0.644433333333     0.113833333333     0          
O        O      0.666666666667     0.355566666667     0.280500000000     0          
O        O      0.750000000000     0.650466666667     0.083333333333     0          
O        O      0.932866666667     0.500000000000     0.000000000000     0          
O        O      0.750000000000     0.349533333333     0.250000000000     0          
O        O      0.900466666667     0.500000000000     0.166666666667     0          
O        O      0.666666666667     0.522233333333     0.386166666667     0          
O        O      0.750000000000     0.516200000000     0.416666666667     0          
O        O      0.894433333333     0.583333333333     0.469500000000     0          
O        O      0.900466666667     0.333333333333     0.500000000000     0          
O        O      0.833333333333     0.477766666667     0.552833333333     0          
O        O      0.750000000000     0.483800000000     0.583333333333     0          
O        O      0.938900000000     0.416666666667     0.636166666667     0          
O        O      0.932866666667     0.333333333333     0.333333333333     0          
O        O      0.666666666667     0.477766666667     0.613833333333     0          
O        O      0.938900000000     0.583333333333     0.363833333333     0          
O        O      0.833333333333     0.522233333333     0.447166666667     0          
O        O      0.894433333333     0.416666666667     0.530500000000     0          
O        O      0.916666666667     0.483800000000     0.583333333333     0          
O        O      0.772233333333     0.416666666667     0.530500000000     0          
O        O      0.766200000000     0.333333333333     0.500000000000     0          
O        O      0.916666666667     0.516200000000     0.416666666667     0          
O        O      0.727766666667     0.583333333333     0.363833333333     0          
O        O      0.733800000000     0.333333333333     0.333333333333     0          
O        O      0.727766666667     0.416666666667     0.636166666667     0          
O        O      0.772233333333     0.583333333333     0.469500000000     0          
O        O      0.833333333333     0.355566666667     0.552833333333     0          
O        O      0.916666666667     0.349533333333     0.583333333333     0          
O        O      0.733800000000     0.500000000000     0.333333333333     0          
O        O      0.666666666667     0.644433333333     0.386166666667     0          
O        O      0.916666666667     0.650466666667     0.416666666667     0          
O        O      0.766200000000     0.500000000000     0.500000000000     0          
O        O      0.833333333333     0.644433333333     0.447166666667     0          
O        O      0.666666666667     0.355566666667     0.613833333333     0          
O        O      0.750000000000     0.650466666667     0.416666666667     0          
O        O      0.932866666667     0.500000000000     0.333333333333     0          
O        O      0.750000000000     0.349533333333     0.583333333333     0          
O        O      0.900466666667     0.500000000000     0.500000000000     0          
O        O      0.666666666667     0.522233333333     0.719500000000     0          
O        O      0.750000000000     0.516200000000     0.750000000000     0          
O        O      0.894433333333     0.583333333333     0.802833333333     0          
O        O      0.900466666667     0.333333333333     0.833333333333     0          
O        O      0.833333333333     0.477766666667     0.886166666667     0          
O        O      0.750000000000     0.483800000000     0.916666666667     0          
O        O      0.938900000000     0.416666666667     0.969500000000     0          
O        O      0.932866666667     0.333333333333     0.666666666667     0          
O        O      0.666666666667     0.477766666667     0.947166666667     0          
O        O      0.938900000000     0.583333333333     0.697166666667     0          
O        O      0.833333333333     0.522233333333     0.780500000000     0          
O        O      0.894433333333     0.416666666667     0.863833333333     0          
O        O      0.916666666667     0.483800000000     0.916666666667     0          
O        O      0.772233333333     0.416666666667     0.863833333333     0          
O        O      0.766200000000     0.333333333333     0.833333333333     0          
O        O      0.916666666667     0.516200000000     0.750000000000     0          
O        O      0.727766666667     0.583333333333     0.697166666667     0          
O        O      0.733800000000     0.333333333333     0.666666666667     0          
O        O      0.727766666667     0.416666666667     0.969500000000     0          
O        O      0.772233333333     0.583333333333     0.802833333333     0          
O        O      0.833333333333     0.355566666667     0.886166666667     0          
O        O      0.916666666667     0.349533333333     0.916666666667     0          
O        O      0.733800000000     0.500000000000     0.666666666667     0          
O        O      0.666666666667     0.644433333333     0.719500000000     0          
O        O      0.916666666667     0.650466666667     0.750000000000     0          
O        O      0.766200000000     0.500000000000     0.833333333333     0          
O        O      0.833333333333     0.644433333333     0.780500000000     0          
O        O      0.666666666667     0.355566666667     0.947166666667     0          
O        O      0.750000000000     0.650466666667     0.750000000000     0          
O        O      0.932866666667     0.500000000000     0.666666666667     0          
O        O      0.750000000000     0.349533333333     0.916666666667     0          
O        O      0.900466666667     0.500000000000     0.833333333333     0          
O        O      0.666666666667     0.855566666667     0.052833333333     0          
O        O      0.750000000000     0.849533333333     0.083333333333     0          
O        O      0.894433333333     0.916666666667     0.136166666667     0          
O        O      0.900466666667     0.666666666667     0.166666666667     0          
O        O      0.833333333333     0.811100000000     0.219500000000     0          
O        O      0.750000000000     0.817133333333     0.250000000000     0          
O        O      0.938900000000     0.750000000000     0.302833333333     0          
O        O      0.932866666667     0.666666666667     0.000000000000     0          
O        O      0.666666666667     0.811100000000     0.280500000000     0          
O        O      0.938900000000     0.916666666667     0.030500000000     0          
O        O      0.833333333333     0.855566666667     0.113833333333     0          
O        O      0.894433333333     0.750000000000     0.197166666667     0          
O        O      0.916666666667     0.817133333333     0.250000000000     0          
O        O      0.772233333333     0.750000000000     0.197166666667     0          
O        O      0.766200000000     0.666666666667     0.166666666667     0          
O        O      0.916666666667     0.849533333333     0.083333333333     0          
O        O      0.727766666667     0.916666666667     0.030500000000     0          
O        O      0.733800000000     0.666666666667     0.000000000000     0          
O        O      0.727766666667     0.750000000000     0.302833333333     0          
O        O      0.772233333333     0.916666666667     0.136166666667     0          
O        O      0.833333333333     0.688900000000     0.219500000000     0          
O        O      0.916666666667     0.682866666667     0.250000000000     0          
O        O      0.733800000000     0.833333333333     0.000000000000     0          
O        O      0.666666666667     0.977766666667     0.052833333333     0          
O        O      0.916666666667     0.983800000000     0.083333333333     0          
O        O      0.766200000000     0.833333333333     0.166666666667     0          
O        O      0.833333333333     0.977766666667     0.113833333333     0          
O        O      0.666666666667     0.688900000000     0.280500000000     0          
O        O      0.750000000000     0.983800000000     0.083333333333     0          
O        O      0.932866666667     0.833333333333     0.000000000000     0          
O        O      0.750000000000     0.682866666667     0.250000000000     0          
O        O      0.900466666667     0.833333333333     0.166666666667     0          
O        O      0.666666666667     0.855566666667     0.386166666667     0          
O        O      0.750000000000     0.849533333333     0.416666666667     0          
O        O      0.894433333333     0.916666666667     0.469500000000     0          
O        O      0.900466666667     0.666666666667     0.500000000000     0          
O        O      0.833333333333     0.811100000000     0.552833333333     0          
O        O      0.750000000000     0.817133333333     0.583333333333     0          
O        O      0.938900000000     0.750000000000     0.636166666667     0          
O        O      0.932866666667     0.666666666667     0.333333333333     0          
O        O      0.666666666667     0.811100000000     0.613833333333     0          
O        O      0.938900000000     0.916666666667     0.363833333333     0          
O        O      0.833333333333     0.855566666667     0.447166666667     0          
O        O      0.894433333333     0.750000000000     0.530500000000     0          
O        O      0.916666666667     0.817133333333     0.583333333333     0          
O        O      0.772233333333     0.750000000000     0.530500000000     0          
O        O      0.766200000000     0.666666666667     0.500000000000     0          
O        O      0.916666666667     0.849533333333     0.416666666667     0          
O        O      0.727766666667     0.916666666667     0.363833333333     0          
O        O      0.733800000000     0.666666666667     0.333333333333     0          
O        O      0.727766666667     0.750000000000     0.636166666667     0          
O        O      0.772233333333     0.916666666667     0.469500000000     0          
O        O      0.833333333333     0.688900000000     0.552833333333     0          
O        O      0.916666666667     0.682866666667     0.583333333333     0          
O        O      0.733800000000     0.833333333333     0.333333333333     0          
O        O      0.666666666667     0.977766666667     0.386166666667     0          
O        O      0.916666666667     0.983800000000     0.416666666667     0          
O        O      0.766200000000     0.833333333333     0.500000000000     0          
O        O      0.833333333333     0.977766666667     0.447166666667     0          
O        O      0.666666666667     0.688900000000     0.613833333333     0          
O        O      0.750000000000     0.983800000000     0.416666666667     0          
O        O      0.932866666667     0.833333333333     0.333333333333     0          
O        O      0.750000000000     0.682866666667     0.583333333333     0          
O        O      0.900466666667     0.833333333333     0.500000000000     0          
O        O      0.666666666667     0.855566666667     0.719500000000     0          
O        O      0.750000000000     0.849533333333     0.750000000000     0          
O        O      0.894433333333     0.916666666667     0.802833333333     0          
O        O      0.900466666667     0.666666666667     0.833333333333     0          
O        O      0.833333333333     0.811100000000     0.886166666667     0          
O        O      0.750000000000     0.817133333333     0.916666666667     0          
O        O      0.938900000000     0.750000000000     0.969500000000     0          
O        O      0.932866666667     0.666666666667     0.666666666667     0          
O        O      0.666666666667     0.811100000000     0.947166666667     0          
O        O      0.938900000000     0.916666666667     0.697166666667     0          
O        O      0.833333333333     0.855566666667     0.780500000000     0          
O        O      0.894433333333     0.750000000000     0.863833333333     0          
O        O      0.916666666667     0.817133333333     0.916666666667     0          
O        O      0.772233333333     0.750000000000     0.863833333333     0          
O        O      0.766200000000     0.666666666667     0.833333333333     0          
O        O      0.916666666667     0.849533333333     0.750000000000     0          
O        O      0.727766666667     0.916666666667     0.697166666667     0          
O        O      0.733800000000     0.666666666667     0.666666666667     0          
O        O      0.727766666667     0.750000000000     0.969500000000     0          
O        O      0.772233333333     0.916666666667     0.802833333333     0          
O        O      0.833333333333     0.688900000000     0.886166666667     0          
O        O      0.916666666667     0.682866666667     0.916666666667     0          
O        O      0.733800000000     0.833333333333     0.666666666667     0          
O        O      0.666666666667     0.977766666667     0.719500000000     0          
O        O      0.916666666667     0.983800000000     0.750000000000     0          
O        O      0.766200000000     0.833333333333     0.833333333333     0          
O        O      0.833333333333     0.977766666667     0.780500000000     0          
O        O      0.666666666667     0.688900000000     0.947166666667     0          
O        O      0.750000000000     0.983800000000     0.750000000000     0          
O        O      0.932866666667     0.833333333333     0.666666666667     0          
O        O      0.750000000000     0.682866666667     0.916666666667     0          
O        O      0.900466666667     0.833333333333     0.833333333333     0          


