data_zeolite

_audit_creation_method RASPA-1.0
_audit_creation_date 2021-6-7
_audit_author_name ''

_cell_length_a    15.794
_cell_length_b    9.206
_cell_length_c    8.589
_cell_angle_alpha 90
_cell_angle_beta  90
_cell_angle_gamma 90
_cell_volume      22479.1

_symmetry_cell_setting          orthorhombic
_symmetry_space_group_name_Hall 'P 1'
_symmetry_space_group_name_H-M  'P 1'
_symmetry_Int_Tables_number     1

_symmetry_equiv_pos_as_xyz 'x,y,z'

loop_
_atom_site_label
_atom_site_type_symbol
_atom_site_fract_x
_atom_site_fract_y
_atom_site_fract_z
_atom_site_charge
T        Si     0.084050000000     0.221533333333     0.145733333333     0          
T        Si     0.000000000000     0.111866666667     0.145700000000     0          
T        Si     0.415950000000     0.111800000000     0.312400000000     0          
T        Si     0.000000000000     0.221466666667     0.312366666667     0          
T        Si     0.084050000000     0.111800000000     0.187600000000     0          
T        Si     0.000000000000     0.221466666667     0.187633333333     0          
T        Si     0.415950000000     0.221533333333     0.020933333333     0          
T        Si     0.000000000000     0.111866666667     0.020966666667     0          
T        Si     0.415950000000     0.111800000000     0.187600000000     0          
T        Si     0.084050000000     0.221533333333     0.020933333333     0          
T        Si     0.415950000000     0.221533333333     0.145733333333     0          
T        Si     0.084050000000     0.111800000000     0.312400000000     0          
T        Si     0.334050000000     0.054866666667     0.145733333333     0          
T        Si     0.250000000000     0.278533333333     0.145700000000     0          
T        Si     0.165950000000     0.278466666667     0.312400000000     0          
T        Si     0.250000000000     0.054800000000     0.312366666667     0          
T        Si     0.334050000000     0.278466666667     0.187600000000     0          
T        Si     0.250000000000     0.054800000000     0.187633333333     0          
T        Si     0.165950000000     0.054866666667     0.020933333333     0          
T        Si     0.250000000000     0.278533333333     0.020966666667     0          
T        Si     0.165950000000     0.278466666667     0.187600000000     0          
T        Si     0.334050000000     0.054866666667     0.020933333333     0          
T        Si     0.165950000000     0.054866666667     0.145733333333     0          
T        Si     0.334050000000     0.278466666667     0.312400000000     0          
T        Si     0.084050000000     0.221533333333     0.479066666667     0          
T        Si     0.000000000000     0.111866666667     0.479033333333     0          
T        Si     0.415950000000     0.111800000000     0.645733333333     0          
T        Si     0.000000000000     0.221466666667     0.645700000000     0          
T        Si     0.084050000000     0.111800000000     0.520933333333     0          
T        Si     0.000000000000     0.221466666667     0.520966666667     0          
T        Si     0.415950000000     0.221533333333     0.354266666667     0          
T        Si     0.000000000000     0.111866666667     0.354300000000     0          
T        Si     0.415950000000     0.111800000000     0.520933333333     0          
T        Si     0.084050000000     0.221533333333     0.354266666667     0          
T        Si     0.415950000000     0.221533333333     0.479066666667     0          
T        Si     0.084050000000     0.111800000000     0.645733333333     0          
T        Si     0.334050000000     0.054866666667     0.479066666667     0          
T        Si     0.250000000000     0.278533333333     0.479033333333     0          
T        Si     0.165950000000     0.278466666667     0.645733333333     0          
T        Si     0.250000000000     0.054800000000     0.645700000000     0          
T        Si     0.334050000000     0.278466666667     0.520933333333     0          
T        Si     0.250000000000     0.054800000000     0.520966666667     0          
T        Si     0.165950000000     0.054866666667     0.354266666667     0          
T        Si     0.250000000000     0.278533333333     0.354300000000     0          
T        Si     0.165950000000     0.278466666667     0.520933333333     0          
T        Si     0.334050000000     0.054866666667     0.354266666667     0          
T        Si     0.165950000000     0.054866666667     0.479066666667     0          
T        Si     0.334050000000     0.278466666667     0.645733333333     0          
T        Si     0.084050000000     0.221533333333     0.812400000000     0          
T        Si     0.000000000000     0.111866666667     0.812366666667     0          
T        Si     0.415950000000     0.111800000000     0.979066666667     0          
T        Si     0.000000000000     0.221466666667     0.979033333333     0          
T        Si     0.084050000000     0.111800000000     0.854266666667     0          
T        Si     0.000000000000     0.221466666667     0.854300000000     0          
T        Si     0.415950000000     0.221533333333     0.687600000000     0          
T        Si     0.000000000000     0.111866666667     0.687633333333     0          
T        Si     0.415950000000     0.111800000000     0.854266666667     0          
T        Si     0.084050000000     0.221533333333     0.687600000000     0          
T        Si     0.415950000000     0.221533333333     0.812400000000     0          
T        Si     0.084050000000     0.111800000000     0.979066666667     0          
T        Si     0.334050000000     0.054866666667     0.812400000000     0          
T        Si     0.250000000000     0.278533333333     0.812366666667     0          
T        Si     0.165950000000     0.278466666667     0.979066666667     0          
T        Si     0.250000000000     0.054800000000     0.979033333333     0          
T        Si     0.334050000000     0.278466666667     0.854266666667     0          
T        Si     0.250000000000     0.054800000000     0.854300000000     0          
T        Si     0.165950000000     0.054866666667     0.687600000000     0          
T        Si     0.250000000000     0.278533333333     0.687633333333     0          
T        Si     0.165950000000     0.278466666667     0.854266666667     0          
T        Si     0.334050000000     0.054866666667     0.687600000000     0          
T        Si     0.165950000000     0.054866666667     0.812400000000     0          
T        Si     0.334050000000     0.278466666667     0.979066666667     0          
T        Si     0.084050000000     0.554866666667     0.145733333333     0          
T        Si     0.000000000000     0.445200000000     0.145700000000     0          
T        Si     0.415950000000     0.445133333333     0.312400000000     0          
T        Si     0.000000000000     0.554800000000     0.312366666667     0          
T        Si     0.084050000000     0.445133333333     0.187600000000     0          
T        Si     0.000000000000     0.554800000000     0.187633333333     0          
T        Si     0.415950000000     0.554866666667     0.020933333333     0          
T        Si     0.000000000000     0.445200000000     0.020966666667     0          
T        Si     0.415950000000     0.445133333333     0.187600000000     0          
T        Si     0.084050000000     0.554866666667     0.020933333333     0          
T        Si     0.415950000000     0.554866666667     0.145733333333     0          
T        Si     0.084050000000     0.445133333333     0.312400000000     0          
T        Si     0.334050000000     0.388200000000     0.145733333333     0          
T        Si     0.250000000000     0.611866666667     0.145700000000     0          
T        Si     0.165950000000     0.611800000000     0.312400000000     0          
T        Si     0.250000000000     0.388133333333     0.312366666667     0          
T        Si     0.334050000000     0.611800000000     0.187600000000     0          
T        Si     0.250000000000     0.388133333333     0.187633333333     0          
T        Si     0.165950000000     0.388200000000     0.020933333333     0          
T        Si     0.250000000000     0.611866666667     0.020966666667     0          
T        Si     0.165950000000     0.611800000000     0.187600000000     0          
T        Si     0.334050000000     0.388200000000     0.020933333333     0          
T        Si     0.165950000000     0.388200000000     0.145733333333     0          
T        Si     0.334050000000     0.611800000000     0.312400000000     0          
T        Si     0.084050000000     0.554866666667     0.479066666667     0          
T        Si     0.000000000000     0.445200000000     0.479033333333     0          
T        Si     0.415950000000     0.445133333333     0.645733333333     0          
T        Si     0.000000000000     0.554800000000     0.645700000000     0          
T        Si     0.084050000000     0.445133333333     0.520933333333     0          
T        Si     0.000000000000     0.554800000000     0.520966666667     0          
T        Si     0.415950000000     0.554866666667     0.354266666667     0          
T        Si     0.000000000000     0.445200000000     0.354300000000     0          
T        Si     0.415950000000     0.445133333333     0.520933333333     0          
T        Si     0.084050000000     0.554866666667     0.354266666667     0          
T        Si     0.415950000000     0.554866666667     0.479066666667     0          
T        Si     0.084050000000     0.445133333333     0.645733333333     0          
T        Si     0.334050000000     0.388200000000     0.479066666667     0          
T        Si     0.250000000000     0.611866666667     0.479033333333     0          
T        Si     0.165950000000     0.611800000000     0.645733333333     0          
T        Si     0.250000000000     0.388133333333     0.645700000000     0          
T        Si     0.334050000000     0.611800000000     0.520933333333     0          
T        Si     0.250000000000     0.388133333333     0.520966666667     0          
T        Si     0.165950000000     0.388200000000     0.354266666667     0          
T        Si     0.250000000000     0.611866666667     0.354300000000     0          
T        Si     0.165950000000     0.611800000000     0.520933333333     0          
T        Si     0.334050000000     0.388200000000     0.354266666667     0          
T        Si     0.165950000000     0.388200000000     0.479066666667     0          
T        Si     0.334050000000     0.611800000000     0.645733333333     0          
T        Si     0.084050000000     0.554866666667     0.812400000000     0          
T        Si     0.000000000000     0.445200000000     0.812366666667     0          
T        Si     0.415950000000     0.445133333333     0.979066666667     0          
T        Si     0.000000000000     0.554800000000     0.979033333333     0          
T        Si     0.084050000000     0.445133333333     0.854266666667     0          
T        Si     0.000000000000     0.554800000000     0.854300000000     0          
T        Si     0.415950000000     0.554866666667     0.687600000000     0          
T        Si     0.000000000000     0.445200000000     0.687633333333     0          
T        Si     0.415950000000     0.445133333333     0.854266666667     0          
T        Si     0.084050000000     0.554866666667     0.687600000000     0          
T        Si     0.415950000000     0.554866666667     0.812400000000     0          
T        Si     0.084050000000     0.445133333333     0.979066666667     0          
T        Si     0.334050000000     0.388200000000     0.812400000000     0          
T        Si     0.250000000000     0.611866666667     0.812366666667     0          
T        Si     0.165950000000     0.611800000000     0.979066666667     0          
T        Si     0.250000000000     0.388133333333     0.979033333333     0          
T        Si     0.334050000000     0.611800000000     0.854266666667     0          
T        Si     0.250000000000     0.388133333333     0.854300000000     0          
T        Si     0.165950000000     0.388200000000     0.687600000000     0          
T        Si     0.250000000000     0.611866666667     0.687633333333     0          
T        Si     0.165950000000     0.611800000000     0.854266666667     0          
T        Si     0.334050000000     0.388200000000     0.687600000000     0          
T        Si     0.165950000000     0.388200000000     0.812400000000     0          
T        Si     0.334050000000     0.611800000000     0.979066666667     0          
T        Si     0.084050000000     0.888200000000     0.145733333333     0          
T        Si     0.000000000000     0.778533333333     0.145700000000     0          
T        Si     0.415950000000     0.778466666667     0.312400000000     0          
T        Si     0.000000000000     0.888133333333     0.312366666667     0          
T        Si     0.084050000000     0.778466666667     0.187600000000     0          
T        Si     0.000000000000     0.888133333333     0.187633333333     0          
T        Si     0.415950000000     0.888200000000     0.020933333333     0          
T        Si     0.000000000000     0.778533333333     0.020966666667     0          
T        Si     0.415950000000     0.778466666667     0.187600000000     0          
T        Si     0.084050000000     0.888200000000     0.020933333333     0          
T        Si     0.415950000000     0.888200000000     0.145733333333     0          
T        Si     0.084050000000     0.778466666667     0.312400000000     0          
T        Si     0.334050000000     0.721533333333     0.145733333333     0          
T        Si     0.250000000000     0.945200000000     0.145700000000     0          
T        Si     0.165950000000     0.945133333333     0.312400000000     0          
T        Si     0.250000000000     0.721466666667     0.312366666667     0          
T        Si     0.334050000000     0.945133333333     0.187600000000     0          
T        Si     0.250000000000     0.721466666667     0.187633333333     0          
T        Si     0.165950000000     0.721533333333     0.020933333333     0          
T        Si     0.250000000000     0.945200000000     0.020966666667     0          
T        Si     0.165950000000     0.945133333333     0.187600000000     0          
T        Si     0.334050000000     0.721533333333     0.020933333333     0          
T        Si     0.165950000000     0.721533333333     0.145733333333     0          
T        Si     0.334050000000     0.945133333333     0.312400000000     0          
T        Si     0.084050000000     0.888200000000     0.479066666667     0          
T        Si     0.000000000000     0.778533333333     0.479033333333     0          
T        Si     0.415950000000     0.778466666667     0.645733333333     0          
T        Si     0.000000000000     0.888133333333     0.645700000000     0          
T        Si     0.084050000000     0.778466666667     0.520933333333     0          
T        Si     0.000000000000     0.888133333333     0.520966666667     0          
T        Si     0.415950000000     0.888200000000     0.354266666667     0          
T        Si     0.000000000000     0.778533333333     0.354300000000     0          
T        Si     0.415950000000     0.778466666667     0.520933333333     0          
T        Si     0.084050000000     0.888200000000     0.354266666667     0          
T        Si     0.415950000000     0.888200000000     0.479066666667     0          
T        Si     0.084050000000     0.778466666667     0.645733333333     0          
T        Si     0.334050000000     0.721533333333     0.479066666667     0          
T        Si     0.250000000000     0.945200000000     0.479033333333     0          
T        Si     0.165950000000     0.945133333333     0.645733333333     0          
T        Si     0.250000000000     0.721466666667     0.645700000000     0          
T        Si     0.334050000000     0.945133333333     0.520933333333     0          
T        Si     0.250000000000     0.721466666667     0.520966666667     0          
T        Si     0.165950000000     0.721533333333     0.354266666667     0          
T        Si     0.250000000000     0.945200000000     0.354300000000     0          
T        Si     0.165950000000     0.945133333333     0.520933333333     0          
T        Si     0.334050000000     0.721533333333     0.354266666667     0          
T        Si     0.165950000000     0.721533333333     0.479066666667     0          
T        Si     0.334050000000     0.945133333333     0.645733333333     0          
T        Si     0.084050000000     0.888200000000     0.812400000000     0          
T        Si     0.000000000000     0.778533333333     0.812366666667     0          
T        Si     0.415950000000     0.778466666667     0.979066666667     0          
T        Si     0.000000000000     0.888133333333     0.979033333333     0          
T        Si     0.084050000000     0.778466666667     0.854266666667     0          
T        Si     0.000000000000     0.888133333333     0.854300000000     0          
T        Si     0.415950000000     0.888200000000     0.687600000000     0          
T        Si     0.000000000000     0.778533333333     0.687633333333     0          
T        Si     0.415950000000     0.778466666667     0.854266666667     0          
T        Si     0.084050000000     0.888200000000     0.687600000000     0          
T        Si     0.415950000000     0.888200000000     0.812400000000     0          
T        Si     0.084050000000     0.778466666667     0.979066666667     0          
T        Si     0.334050000000     0.721533333333     0.812400000000     0          
T        Si     0.250000000000     0.945200000000     0.812366666667     0          
T        Si     0.165950000000     0.945133333333     0.979066666667     0          
T        Si     0.250000000000     0.721466666667     0.979033333333     0          
T        Si     0.334050000000     0.945133333333     0.854266666667     0          
T        Si     0.250000000000     0.721466666667     0.854300000000     0          
T        Si     0.165950000000     0.721533333333     0.687600000000     0          
T        Si     0.250000000000     0.945200000000     0.687633333333     0          
T        Si     0.165950000000     0.945133333333     0.854266666667     0          
T        Si     0.334050000000     0.721533333333     0.687600000000     0          
T        Si     0.165950000000     0.721533333333     0.812400000000     0          
T        Si     0.334050000000     0.945133333333     0.979066666667     0          
T        Si     0.584050000000     0.221533333333     0.145733333333     0          
T        Si     0.500000000000     0.111866666667     0.145700000000     0          
T        Si     0.915950000000     0.111800000000     0.312400000000     0          
T        Si     0.500000000000     0.221466666667     0.312366666667     0          
T        Si     0.584050000000     0.111800000000     0.187600000000     0          
T        Si     0.500000000000     0.221466666667     0.187633333333     0          
T        Si     0.915950000000     0.221533333333     0.020933333333     0          
T        Si     0.500000000000     0.111866666667     0.020966666667     0          
T        Si     0.915950000000     0.111800000000     0.187600000000     0          
T        Si     0.584050000000     0.221533333333     0.020933333333     0          
T        Si     0.915950000000     0.221533333333     0.145733333333     0          
T        Si     0.584050000000     0.111800000000     0.312400000000     0          
T        Si     0.834050000000     0.054866666667     0.145733333333     0          
T        Si     0.750000000000     0.278533333333     0.145700000000     0          
T        Si     0.665950000000     0.278466666667     0.312400000000     0          
T        Si     0.750000000000     0.054800000000     0.312366666667     0          
T        Si     0.834050000000     0.278466666667     0.187600000000     0          
T        Si     0.750000000000     0.054800000000     0.187633333333     0          
T        Si     0.665950000000     0.054866666667     0.020933333333     0          
T        Si     0.750000000000     0.278533333333     0.020966666667     0          
T        Si     0.665950000000     0.278466666667     0.187600000000     0          
T        Si     0.834050000000     0.054866666667     0.020933333333     0          
T        Si     0.665950000000     0.054866666667     0.145733333333     0          
T        Si     0.834050000000     0.278466666667     0.312400000000     0          
T        Si     0.584050000000     0.221533333333     0.479066666667     0          
T        Si     0.500000000000     0.111866666667     0.479033333333     0          
T        Si     0.915950000000     0.111800000000     0.645733333333     0          
T        Si     0.500000000000     0.221466666667     0.645700000000     0          
T        Si     0.584050000000     0.111800000000     0.520933333333     0          
T        Si     0.500000000000     0.221466666667     0.520966666667     0          
T        Si     0.915950000000     0.221533333333     0.354266666667     0          
T        Si     0.500000000000     0.111866666667     0.354300000000     0          
T        Si     0.915950000000     0.111800000000     0.520933333333     0          
T        Si     0.584050000000     0.221533333333     0.354266666667     0          
T        Si     0.915950000000     0.221533333333     0.479066666667     0          
T        Si     0.584050000000     0.111800000000     0.645733333333     0          
T        Si     0.834050000000     0.054866666667     0.479066666667     0          
T        Si     0.750000000000     0.278533333333     0.479033333333     0          
T        Si     0.665950000000     0.278466666667     0.645733333333     0          
T        Si     0.750000000000     0.054800000000     0.645700000000     0          
T        Si     0.834050000000     0.278466666667     0.520933333333     0          
T        Si     0.750000000000     0.054800000000     0.520966666667     0          
T        Si     0.665950000000     0.054866666667     0.354266666667     0          
T        Si     0.750000000000     0.278533333333     0.354300000000     0          
T        Si     0.665950000000     0.278466666667     0.520933333333     0          
T        Si     0.834050000000     0.054866666667     0.354266666667     0          
T        Si     0.665950000000     0.054866666667     0.479066666667     0          
T        Si     0.834050000000     0.278466666667     0.645733333333     0          
T        Si     0.584050000000     0.221533333333     0.812400000000     0          
T        Si     0.500000000000     0.111866666667     0.812366666667     0          
T        Si     0.915950000000     0.111800000000     0.979066666667     0          
T        Si     0.500000000000     0.221466666667     0.979033333333     0          
T        Si     0.584050000000     0.111800000000     0.854266666667     0          
T        Si     0.500000000000     0.221466666667     0.854300000000     0          
T        Si     0.915950000000     0.221533333333     0.687600000000     0          
T        Si     0.500000000000     0.111866666667     0.687633333333     0          
T        Si     0.915950000000     0.111800000000     0.854266666667     0          
T        Si     0.584050000000     0.221533333333     0.687600000000     0          
T        Si     0.915950000000     0.221533333333     0.812400000000     0          
T        Si     0.584050000000     0.111800000000     0.979066666667     0          
T        Si     0.834050000000     0.054866666667     0.812400000000     0          
T        Si     0.750000000000     0.278533333333     0.812366666667     0          
T        Si     0.665950000000     0.278466666667     0.979066666667     0          
T        Si     0.750000000000     0.054800000000     0.979033333333     0          
T        Si     0.834050000000     0.278466666667     0.854266666667     0          
T        Si     0.750000000000     0.054800000000     0.854300000000     0          
T        Si     0.665950000000     0.054866666667     0.687600000000     0          
T        Si     0.750000000000     0.278533333333     0.687633333333     0          
T        Si     0.665950000000     0.278466666667     0.854266666667     0          
T        Si     0.834050000000     0.054866666667     0.687600000000     0          
T        Si     0.665950000000     0.054866666667     0.812400000000     0          
T        Si     0.834050000000     0.278466666667     0.979066666667     0          
T        Si     0.584050000000     0.554866666667     0.145733333333     0          
T        Si     0.500000000000     0.445200000000     0.145700000000     0          
T        Si     0.915950000000     0.445133333333     0.312400000000     0          
T        Si     0.500000000000     0.554800000000     0.312366666667     0          
T        Si     0.584050000000     0.445133333333     0.187600000000     0          
T        Si     0.500000000000     0.554800000000     0.187633333333     0          
T        Si     0.915950000000     0.554866666667     0.020933333333     0          
T        Si     0.500000000000     0.445200000000     0.020966666667     0          
T        Si     0.915950000000     0.445133333333     0.187600000000     0          
T        Si     0.584050000000     0.554866666667     0.020933333333     0          
T        Si     0.915950000000     0.554866666667     0.145733333333     0          
T        Si     0.584050000000     0.445133333333     0.312400000000     0          
T        Si     0.834050000000     0.388200000000     0.145733333333     0          
T        Si     0.750000000000     0.611866666667     0.145700000000     0          
T        Si     0.665950000000     0.611800000000     0.312400000000     0          
T        Si     0.750000000000     0.388133333333     0.312366666667     0          
T        Si     0.834050000000     0.611800000000     0.187600000000     0          
T        Si     0.750000000000     0.388133333333     0.187633333333     0          
T        Si     0.665950000000     0.388200000000     0.020933333333     0          
T        Si     0.750000000000     0.611866666667     0.020966666667     0          
T        Si     0.665950000000     0.611800000000     0.187600000000     0          
T        Si     0.834050000000     0.388200000000     0.020933333333     0          
T        Si     0.665950000000     0.388200000000     0.145733333333     0          
T        Si     0.834050000000     0.611800000000     0.312400000000     0          
T        Si     0.584050000000     0.554866666667     0.479066666667     0          
T        Si     0.500000000000     0.445200000000     0.479033333333     0          
T        Si     0.915950000000     0.445133333333     0.645733333333     0          
T        Si     0.500000000000     0.554800000000     0.645700000000     0          
T        Si     0.584050000000     0.445133333333     0.520933333333     0          
T        Si     0.500000000000     0.554800000000     0.520966666667     0          
T        Si     0.915950000000     0.554866666667     0.354266666667     0          
T        Si     0.500000000000     0.445200000000     0.354300000000     0          
T        Si     0.915950000000     0.445133333333     0.520933333333     0          
T        Si     0.584050000000     0.554866666667     0.354266666667     0          
T        Si     0.915950000000     0.554866666667     0.479066666667     0          
T        Si     0.584050000000     0.445133333333     0.645733333333     0          
T        Si     0.834050000000     0.388200000000     0.479066666667     0          
T        Si     0.750000000000     0.611866666667     0.479033333333     0          
T        Si     0.665950000000     0.611800000000     0.645733333333     0          
T        Si     0.750000000000     0.388133333333     0.645700000000     0          
T        Si     0.834050000000     0.611800000000     0.520933333333     0          
T        Si     0.750000000000     0.388133333333     0.520966666667     0          
T        Si     0.665950000000     0.388200000000     0.354266666667     0          
T        Si     0.750000000000     0.611866666667     0.354300000000     0          
T        Si     0.665950000000     0.611800000000     0.520933333333     0          
T        Si     0.834050000000     0.388200000000     0.354266666667     0          
T        Si     0.665950000000     0.388200000000     0.479066666667     0          
T        Si     0.834050000000     0.611800000000     0.645733333333     0          
T        Si     0.584050000000     0.554866666667     0.812400000000     0          
T        Si     0.500000000000     0.445200000000     0.812366666667     0          
T        Si     0.915950000000     0.445133333333     0.979066666667     0          
T        Si     0.500000000000     0.554800000000     0.979033333333     0          
T        Si     0.584050000000     0.445133333333     0.854266666667     0          
T        Si     0.500000000000     0.554800000000     0.854300000000     0          
T        Si     0.915950000000     0.554866666667     0.687600000000     0          
T        Si     0.500000000000     0.445200000000     0.687633333333     0          
T        Si     0.915950000000     0.445133333333     0.854266666667     0          
T        Si     0.584050000000     0.554866666667     0.687600000000     0          
T        Si     0.915950000000     0.554866666667     0.812400000000     0          
T        Si     0.584050000000     0.445133333333     0.979066666667     0          
T        Si     0.834050000000     0.388200000000     0.812400000000     0          
T        Si     0.750000000000     0.611866666667     0.812366666667     0          
T        Si     0.665950000000     0.611800000000     0.979066666667     0          
T        Si     0.750000000000     0.388133333333     0.979033333333     0          
T        Si     0.834050000000     0.611800000000     0.854266666667     0          
T        Si     0.750000000000     0.388133333333     0.854300000000     0          
T        Si     0.665950000000     0.388200000000     0.687600000000     0          
T        Si     0.750000000000     0.611866666667     0.687633333333     0          
T        Si     0.665950000000     0.611800000000     0.854266666667     0          
T        Si     0.834050000000     0.388200000000     0.687600000000     0          
T        Si     0.665950000000     0.388200000000     0.812400000000     0          
T        Si     0.834050000000     0.611800000000     0.979066666667     0          
T        Si     0.584050000000     0.888200000000     0.145733333333     0          
T        Si     0.500000000000     0.778533333333     0.145700000000     0          
T        Si     0.915950000000     0.778466666667     0.312400000000     0          
T        Si     0.500000000000     0.888133333333     0.312366666667     0          
T        Si     0.584050000000     0.778466666667     0.187600000000     0          
T        Si     0.500000000000     0.888133333333     0.187633333333     0          
T        Si     0.915950000000     0.888200000000     0.020933333333     0          
T        Si     0.500000000000     0.778533333333     0.020966666667     0          
T        Si     0.915950000000     0.778466666667     0.187600000000     0          
T        Si     0.584050000000     0.888200000000     0.020933333333     0          
T        Si     0.915950000000     0.888200000000     0.145733333333     0          
T        Si     0.584050000000     0.778466666667     0.312400000000     0          
T        Si     0.834050000000     0.721533333333     0.145733333333     0          
T        Si     0.750000000000     0.945200000000     0.145700000000     0          
T        Si     0.665950000000     0.945133333333     0.312400000000     0          
T        Si     0.750000000000     0.721466666667     0.312366666667     0          
T        Si     0.834050000000     0.945133333333     0.187600000000     0          
T        Si     0.750000000000     0.721466666667     0.187633333333     0          
T        Si     0.665950000000     0.721533333333     0.020933333333     0          
T        Si     0.750000000000     0.945200000000     0.020966666667     0          
T        Si     0.665950000000     0.945133333333     0.187600000000     0          
T        Si     0.834050000000     0.721533333333     0.020933333333     0          
T        Si     0.665950000000     0.721533333333     0.145733333333     0          
T        Si     0.834050000000     0.945133333333     0.312400000000     0          
T        Si     0.584050000000     0.888200000000     0.479066666667     0          
T        Si     0.500000000000     0.778533333333     0.479033333333     0          
T        Si     0.915950000000     0.778466666667     0.645733333333     0          
T        Si     0.500000000000     0.888133333333     0.645700000000     0          
T        Si     0.584050000000     0.778466666667     0.520933333333     0          
T        Si     0.500000000000     0.888133333333     0.520966666667     0          
T        Si     0.915950000000     0.888200000000     0.354266666667     0          
T        Si     0.500000000000     0.778533333333     0.354300000000     0          
T        Si     0.915950000000     0.778466666667     0.520933333333     0          
T        Si     0.584050000000     0.888200000000     0.354266666667     0          
T        Si     0.915950000000     0.888200000000     0.479066666667     0          
T        Si     0.584050000000     0.778466666667     0.645733333333     0          
T        Si     0.834050000000     0.721533333333     0.479066666667     0          
T        Si     0.750000000000     0.945200000000     0.479033333333     0          
T        Si     0.665950000000     0.945133333333     0.645733333333     0          
T        Si     0.750000000000     0.721466666667     0.645700000000     0          
T        Si     0.834050000000     0.945133333333     0.520933333333     0          
T        Si     0.750000000000     0.721466666667     0.520966666667     0          
T        Si     0.665950000000     0.721533333333     0.354266666667     0          
T        Si     0.750000000000     0.945200000000     0.354300000000     0          
T        Si     0.665950000000     0.945133333333     0.520933333333     0          
T        Si     0.834050000000     0.721533333333     0.354266666667     0          
T        Si     0.665950000000     0.721533333333     0.479066666667     0          
T        Si     0.834050000000     0.945133333333     0.645733333333     0          
T        Si     0.584050000000     0.888200000000     0.812400000000     0          
T        Si     0.500000000000     0.778533333333     0.812366666667     0          
T        Si     0.915950000000     0.778466666667     0.979066666667     0          
T        Si     0.500000000000     0.888133333333     0.979033333333     0          
T        Si     0.584050000000     0.778466666667     0.854266666667     0          
T        Si     0.500000000000     0.888133333333     0.854300000000     0          
T        Si     0.915950000000     0.888200000000     0.687600000000     0          
T        Si     0.500000000000     0.778533333333     0.687633333333     0          
T        Si     0.915950000000     0.778466666667     0.854266666667     0          
T        Si     0.584050000000     0.888200000000     0.687600000000     0          
T        Si     0.915950000000     0.888200000000     0.812400000000     0          
T        Si     0.584050000000     0.778466666667     0.979066666667     0          
T        Si     0.834050000000     0.721533333333     0.812400000000     0          
T        Si     0.750000000000     0.945200000000     0.812366666667     0          
T        Si     0.665950000000     0.945133333333     0.979066666667     0          
T        Si     0.750000000000     0.721466666667     0.979033333333     0          
T        Si     0.834050000000     0.945133333333     0.854266666667     0          
T        Si     0.750000000000     0.721466666667     0.854300000000     0          
T        Si     0.665950000000     0.721533333333     0.687600000000     0          
T        Si     0.750000000000     0.945200000000     0.687633333333     0          
T        Si     0.665950000000     0.945133333333     0.854266666667     0          
T        Si     0.834050000000     0.721533333333     0.687600000000     0          
T        Si     0.665950000000     0.721533333333     0.812400000000     0          
T        Si     0.834050000000     0.945133333333     0.979066666667     0          
O        O      0.041800000000     0.248200000000     0.166166666667     0          
O        O      0.084800000000     0.166666666667     0.166666666667     0          
O        O      0.084200000000     0.221400000000     0.083333333333     0          
O        O      0.125000000000     0.250000000000     0.166666666667     0          
O        O      0.000000000000     0.111533333333     0.083333333333     0          
O        O      0.000000000000     0.166666666667     0.166666666667     0          
O        O      0.458200000000     0.085133333333     0.332833333333     0          
O        O      0.415200000000     0.166666666667     0.000000000000     0          
O        O      0.415800000000     0.111933333333     0.250000000000     0          
O        O      0.375000000000     0.083333333333     0.000000000000     0          
O        O      0.000000000000     0.221800000000     0.250000000000     0          
O        O      0.000000000000     0.166666666667     0.000000000000     0          
O        O      0.041800000000     0.085133333333     0.167166666667     0          
O        O      0.084200000000     0.111933333333     0.250000000000     0          
O        O      0.125000000000     0.083333333333     0.166666666667     0          
O        O      0.458200000000     0.248200000000     0.000500000000     0          
O        O      0.415800000000     0.221400000000     0.083333333333     0          
O        O      0.375000000000     0.250000000000     0.000000000000     0          
O        O      0.458200000000     0.085133333333     0.167166666667     0          
O        O      0.415200000000     0.166666666667     0.166666666667     0          
O        O      0.375000000000     0.083333333333     0.166666666667     0          
O        O      0.041800000000     0.248200000000     0.000500000000     0          
O        O      0.084800000000     0.166666666667     0.000000000000     0          
O        O      0.125000000000     0.250000000000     0.000000000000     0          
O        O      0.458200000000     0.248200000000     0.166166666667     0          
O        O      0.375000000000     0.250000000000     0.166666666667     0          
O        O      0.041800000000     0.085133333333     0.332833333333     0          
O        O      0.125000000000     0.083333333333     0.000000000000     0          
O        O      0.291800000000     0.081533333333     0.166166666667     0          
O        O      0.334800000000     0.000000000000     0.166666666667     0          
O        O      0.334200000000     0.054733333333     0.083333333333     0          
O        O      0.250000000000     0.278200000000     0.083333333333     0          
O        O      0.250000000000     0.000000000000     0.166666666667     0          
O        O      0.208200000000     0.251800000000     0.332833333333     0          
O        O      0.165200000000     0.000000000000     0.000000000000     0          
O        O      0.165800000000     0.278600000000     0.250000000000     0          
O        O      0.250000000000     0.055133333333     0.250000000000     0          
O        O      0.250000000000     0.000000000000     0.000000000000     0          
O        O      0.291800000000     0.251800000000     0.167166666667     0          
O        O      0.334200000000     0.278600000000     0.250000000000     0          
O        O      0.208200000000     0.081533333333     0.000500000000     0          
O        O      0.165800000000     0.054733333333     0.083333333333     0          
O        O      0.208200000000     0.251800000000     0.167166666667     0          
O        O      0.165200000000     0.000000000000     0.166666666667     0          
O        O      0.291800000000     0.081533333333     0.000500000000     0          
O        O      0.334800000000     0.000000000000     0.000000000000     0          
O        O      0.208200000000     0.081533333333     0.166166666667     0          
O        O      0.291800000000     0.251800000000     0.332833333333     0          
O        O      0.041800000000     0.248200000000     0.499500000000     0          
O        O      0.084800000000     0.166666666667     0.500000000000     0          
O        O      0.084200000000     0.221400000000     0.416666666667     0          
O        O      0.125000000000     0.250000000000     0.500000000000     0          
O        O      0.000000000000     0.111533333333     0.416666666667     0          
O        O      0.000000000000     0.166666666667     0.500000000000     0          
O        O      0.458200000000     0.085133333333     0.666166666667     0          
O        O      0.415200000000     0.166666666667     0.333333333333     0          
O        O      0.415800000000     0.111933333333     0.583333333333     0          
O        O      0.375000000000     0.083333333333     0.333333333333     0          
O        O      0.000000000000     0.221800000000     0.583333333333     0          
O        O      0.000000000000     0.166666666667     0.333333333333     0          
O        O      0.041800000000     0.085133333333     0.500500000000     0          
O        O      0.084200000000     0.111933333333     0.583333333333     0          
O        O      0.125000000000     0.083333333333     0.500000000000     0          
O        O      0.458200000000     0.248200000000     0.333833333333     0          
O        O      0.415800000000     0.221400000000     0.416666666667     0          
O        O      0.375000000000     0.250000000000     0.333333333333     0          
O        O      0.458200000000     0.085133333333     0.500500000000     0          
O        O      0.415200000000     0.166666666667     0.500000000000     0          
O        O      0.375000000000     0.083333333333     0.500000000000     0          
O        O      0.041800000000     0.248200000000     0.333833333333     0          
O        O      0.084800000000     0.166666666667     0.333333333333     0          
O        O      0.125000000000     0.250000000000     0.333333333333     0          
O        O      0.458200000000     0.248200000000     0.499500000000     0          
O        O      0.375000000000     0.250000000000     0.500000000000     0          
O        O      0.041800000000     0.085133333333     0.666166666667     0          
O        O      0.125000000000     0.083333333333     0.333333333333     0          
O        O      0.291800000000     0.081533333333     0.499500000000     0          
O        O      0.334800000000     0.000000000000     0.500000000000     0          
O        O      0.334200000000     0.054733333333     0.416666666667     0          
O        O      0.250000000000     0.278200000000     0.416666666667     0          
O        O      0.250000000000     0.000000000000     0.500000000000     0          
O        O      0.208200000000     0.251800000000     0.666166666667     0          
O        O      0.165200000000     0.000000000000     0.333333333333     0          
O        O      0.165800000000     0.278600000000     0.583333333333     0          
O        O      0.250000000000     0.055133333333     0.583333333333     0          
O        O      0.250000000000     0.000000000000     0.333333333333     0          
O        O      0.291800000000     0.251800000000     0.500500000000     0          
O        O      0.334200000000     0.278600000000     0.583333333333     0          
O        O      0.208200000000     0.081533333333     0.333833333333     0          
O        O      0.165800000000     0.054733333333     0.416666666667     0          
O        O      0.208200000000     0.251800000000     0.500500000000     0          
O        O      0.165200000000     0.000000000000     0.500000000000     0          
O        O      0.291800000000     0.081533333333     0.333833333333     0          
O        O      0.334800000000     0.000000000000     0.333333333333     0          
O        O      0.208200000000     0.081533333333     0.499500000000     0          
O        O      0.291800000000     0.251800000000     0.666166666667     0          
O        O      0.041800000000     0.248200000000     0.832833333333     0          
O        O      0.084800000000     0.166666666667     0.833333333333     0          
O        O      0.084200000000     0.221400000000     0.750000000000     0          
O        O      0.125000000000     0.250000000000     0.833333333333     0          
O        O      0.000000000000     0.111533333333     0.750000000000     0          
O        O      0.000000000000     0.166666666667     0.833333333333     0          
O        O      0.458200000000     0.085133333333     0.999500000000     0          
O        O      0.415200000000     0.166666666667     0.666666666667     0          
O        O      0.415800000000     0.111933333333     0.916666666667     0          
O        O      0.375000000000     0.083333333333     0.666666666667     0          
O        O      0.000000000000     0.221800000000     0.916666666667     0          
O        O      0.000000000000     0.166666666667     0.666666666667     0          
O        O      0.041800000000     0.085133333333     0.833833333333     0          
O        O      0.084200000000     0.111933333333     0.916666666667     0          
O        O      0.125000000000     0.083333333333     0.833333333333     0          
O        O      0.458200000000     0.248200000000     0.667166666667     0          
O        O      0.415800000000     0.221400000000     0.750000000000     0          
O        O      0.375000000000     0.250000000000     0.666666666667     0          
O        O      0.458200000000     0.085133333333     0.833833333333     0          
O        O      0.415200000000     0.166666666667     0.833333333333     0          
O        O      0.375000000000     0.083333333333     0.833333333333     0          
O        O      0.041800000000     0.248200000000     0.667166666667     0          
O        O      0.084800000000     0.166666666667     0.666666666667     0          
O        O      0.125000000000     0.250000000000     0.666666666667     0          
O        O      0.458200000000     0.248200000000     0.832833333333     0          
O        O      0.375000000000     0.250000000000     0.833333333333     0          
O        O      0.041800000000     0.085133333333     0.999500000000     0          
O        O      0.125000000000     0.083333333333     0.666666666667     0          
O        O      0.291800000000     0.081533333333     0.832833333333     0          
O        O      0.334800000000     0.000000000000     0.833333333333     0          
O        O      0.334200000000     0.054733333333     0.750000000000     0          
O        O      0.250000000000     0.278200000000     0.750000000000     0          
O        O      0.250000000000     0.000000000000     0.833333333333     0          
O        O      0.208200000000     0.251800000000     0.999500000000     0          
O        O      0.165200000000     0.000000000000     0.666666666667     0          
O        O      0.165800000000     0.278600000000     0.916666666667     0          
O        O      0.250000000000     0.055133333333     0.916666666667     0          
O        O      0.250000000000     0.000000000000     0.666666666667     0          
O        O      0.291800000000     0.251800000000     0.833833333333     0          
O        O      0.334200000000     0.278600000000     0.916666666667     0          
O        O      0.208200000000     0.081533333333     0.667166666667     0          
O        O      0.165800000000     0.054733333333     0.750000000000     0          
O        O      0.208200000000     0.251800000000     0.833833333333     0          
O        O      0.165200000000     0.000000000000     0.833333333333     0          
O        O      0.291800000000     0.081533333333     0.667166666667     0          
O        O      0.334800000000     0.000000000000     0.666666666667     0          
O        O      0.208200000000     0.081533333333     0.832833333333     0          
O        O      0.291800000000     0.251800000000     0.999500000000     0          
O        O      0.041800000000     0.581533333333     0.166166666667     0          
O        O      0.084800000000     0.500000000000     0.166666666667     0          
O        O      0.084200000000     0.554733333333     0.083333333333     0          
O        O      0.125000000000     0.583333333333     0.166666666667     0          
O        O      0.000000000000     0.444866666667     0.083333333333     0          
O        O      0.000000000000     0.500000000000     0.166666666667     0          
O        O      0.458200000000     0.418466666667     0.332833333333     0          
O        O      0.415200000000     0.500000000000     0.000000000000     0          
O        O      0.415800000000     0.445266666667     0.250000000000     0          
O        O      0.375000000000     0.416666666667     0.000000000000     0          
O        O      0.000000000000     0.555133333333     0.250000000000     0          
O        O      0.000000000000     0.500000000000     0.000000000000     0          
O        O      0.041800000000     0.418466666667     0.167166666667     0          
O        O      0.084200000000     0.445266666667     0.250000000000     0          
O        O      0.125000000000     0.416666666667     0.166666666667     0          
O        O      0.458200000000     0.581533333333     0.000500000000     0          
O        O      0.415800000000     0.554733333333     0.083333333333     0          
O        O      0.375000000000     0.583333333333     0.000000000000     0          
O        O      0.458200000000     0.418466666667     0.167166666667     0          
O        O      0.415200000000     0.500000000000     0.166666666667     0          
O        O      0.375000000000     0.416666666667     0.166666666667     0          
O        O      0.041800000000     0.581533333333     0.000500000000     0          
O        O      0.084800000000     0.500000000000     0.000000000000     0          
O        O      0.125000000000     0.583333333333     0.000000000000     0          
O        O      0.458200000000     0.581533333333     0.166166666667     0          
O        O      0.375000000000     0.583333333333     0.166666666667     0          
O        O      0.041800000000     0.418466666667     0.332833333333     0          
O        O      0.125000000000     0.416666666667     0.000000000000     0          
O        O      0.291800000000     0.414866666667     0.166166666667     0          
O        O      0.334800000000     0.333333333333     0.166666666667     0          
O        O      0.334200000000     0.388066666667     0.083333333333     0          
O        O      0.250000000000     0.611533333333     0.083333333333     0          
O        O      0.250000000000     0.333333333333     0.166666666667     0          
O        O      0.208200000000     0.585133333333     0.332833333333     0          
O        O      0.165200000000     0.333333333333     0.000000000000     0          
O        O      0.165800000000     0.611933333333     0.250000000000     0          
O        O      0.250000000000     0.388466666667     0.250000000000     0          
O        O      0.250000000000     0.333333333333     0.000000000000     0          
O        O      0.291800000000     0.585133333333     0.167166666667     0          
O        O      0.334200000000     0.611933333333     0.250000000000     0          
O        O      0.208200000000     0.414866666667     0.000500000000     0          
O        O      0.165800000000     0.388066666667     0.083333333333     0          
O        O      0.208200000000     0.585133333333     0.167166666667     0          
O        O      0.165200000000     0.333333333333     0.166666666667     0          
O        O      0.291800000000     0.414866666667     0.000500000000     0          
O        O      0.334800000000     0.333333333333     0.000000000000     0          
O        O      0.208200000000     0.414866666667     0.166166666667     0          
O        O      0.291800000000     0.585133333333     0.332833333333     0          
O        O      0.041800000000     0.581533333333     0.499500000000     0          
O        O      0.084800000000     0.500000000000     0.500000000000     0          
O        O      0.084200000000     0.554733333333     0.416666666667     0          
O        O      0.125000000000     0.583333333333     0.500000000000     0          
O        O      0.000000000000     0.444866666667     0.416666666667     0          
O        O      0.000000000000     0.500000000000     0.500000000000     0          
O        O      0.458200000000     0.418466666667     0.666166666667     0          
O        O      0.415200000000     0.500000000000     0.333333333333     0          
O        O      0.415800000000     0.445266666667     0.583333333333     0          
O        O      0.375000000000     0.416666666667     0.333333333333     0          
O        O      0.000000000000     0.555133333333     0.583333333333     0          
O        O      0.000000000000     0.500000000000     0.333333333333     0          
O        O      0.041800000000     0.418466666667     0.500500000000     0          
O        O      0.084200000000     0.445266666667     0.583333333333     0          
O        O      0.125000000000     0.416666666667     0.500000000000     0          
O        O      0.458200000000     0.581533333333     0.333833333333     0          
O        O      0.415800000000     0.554733333333     0.416666666667     0          
O        O      0.375000000000     0.583333333333     0.333333333333     0          
O        O      0.458200000000     0.418466666667     0.500500000000     0          
O        O      0.415200000000     0.500000000000     0.500000000000     0          
O        O      0.375000000000     0.416666666667     0.500000000000     0          
O        O      0.041800000000     0.581533333333     0.333833333333     0          
O        O      0.084800000000     0.500000000000     0.333333333333     0          
O        O      0.125000000000     0.583333333333     0.333333333333     0          
O        O      0.458200000000     0.581533333333     0.499500000000     0          
O        O      0.375000000000     0.583333333333     0.500000000000     0          
O        O      0.041800000000     0.418466666667     0.666166666667     0          
O        O      0.125000000000     0.416666666667     0.333333333333     0          
O        O      0.291800000000     0.414866666667     0.499500000000     0          
O        O      0.334800000000     0.333333333333     0.500000000000     0          
O        O      0.334200000000     0.388066666667     0.416666666667     0          
O        O      0.250000000000     0.611533333333     0.416666666667     0          
O        O      0.250000000000     0.333333333333     0.500000000000     0          
O        O      0.208200000000     0.585133333333     0.666166666667     0          
O        O      0.165200000000     0.333333333333     0.333333333333     0          
O        O      0.165800000000     0.611933333333     0.583333333333     0          
O        O      0.250000000000     0.388466666667     0.583333333333     0          
O        O      0.250000000000     0.333333333333     0.333333333333     0          
O        O      0.291800000000     0.585133333333     0.500500000000     0          
O        O      0.334200000000     0.611933333333     0.583333333333     0          
O        O      0.208200000000     0.414866666667     0.333833333333     0          
O        O      0.165800000000     0.388066666667     0.416666666667     0          
O        O      0.208200000000     0.585133333333     0.500500000000     0          
O        O      0.165200000000     0.333333333333     0.500000000000     0          
O        O      0.291800000000     0.414866666667     0.333833333333     0          
O        O      0.334800000000     0.333333333333     0.333333333333     0          
O        O      0.208200000000     0.414866666667     0.499500000000     0          
O        O      0.291800000000     0.585133333333     0.666166666667     0          
O        O      0.041800000000     0.581533333333     0.832833333333     0          
O        O      0.084800000000     0.500000000000     0.833333333333     0          
O        O      0.084200000000     0.554733333333     0.750000000000     0          
O        O      0.125000000000     0.583333333333     0.833333333333     0          
O        O      0.000000000000     0.444866666667     0.750000000000     0          
O        O      0.000000000000     0.500000000000     0.833333333333     0          
O        O      0.458200000000     0.418466666667     0.999500000000     0          
O        O      0.415200000000     0.500000000000     0.666666666667     0          
O        O      0.415800000000     0.445266666667     0.916666666667     0          
O        O      0.375000000000     0.416666666667     0.666666666667     0          
O        O      0.000000000000     0.555133333333     0.916666666667     0          
O        O      0.000000000000     0.500000000000     0.666666666667     0          
O        O      0.041800000000     0.418466666667     0.833833333333     0          
O        O      0.084200000000     0.445266666667     0.916666666667     0          
O        O      0.125000000000     0.416666666667     0.833333333333     0          
O        O      0.458200000000     0.581533333333     0.667166666667     0          
O        O      0.415800000000     0.554733333333     0.750000000000     0          
O        O      0.375000000000     0.583333333333     0.666666666667     0          
O        O      0.458200000000     0.418466666667     0.833833333333     0          
O        O      0.415200000000     0.500000000000     0.833333333333     0          
O        O      0.375000000000     0.416666666667     0.833333333333     0          
O        O      0.041800000000     0.581533333333     0.667166666667     0          
O        O      0.084800000000     0.500000000000     0.666666666667     0          
O        O      0.125000000000     0.583333333333     0.666666666667     0          
O        O      0.458200000000     0.581533333333     0.832833333333     0          
O        O      0.375000000000     0.583333333333     0.833333333333     0          
O        O      0.041800000000     0.418466666667     0.999500000000     0          
O        O      0.125000000000     0.416666666667     0.666666666667     0          
O        O      0.291800000000     0.414866666667     0.832833333333     0          
O        O      0.334800000000     0.333333333333     0.833333333333     0          
O        O      0.334200000000     0.388066666667     0.750000000000     0          
O        O      0.250000000000     0.611533333333     0.750000000000     0          
O        O      0.250000000000     0.333333333333     0.833333333333     0          
O        O      0.208200000000     0.585133333333     0.999500000000     0          
O        O      0.165200000000     0.333333333333     0.666666666667     0          
O        O      0.165800000000     0.611933333333     0.916666666667     0          
O        O      0.250000000000     0.388466666667     0.916666666667     0          
O        O      0.250000000000     0.333333333333     0.666666666667     0          
O        O      0.291800000000     0.585133333333     0.833833333333     0          
O        O      0.334200000000     0.611933333333     0.916666666667     0          
O        O      0.208200000000     0.414866666667     0.667166666667     0          
O        O      0.165800000000     0.388066666667     0.750000000000     0          
O        O      0.208200000000     0.585133333333     0.833833333333     0          
O        O      0.165200000000     0.333333333333     0.833333333333     0          
O        O      0.291800000000     0.414866666667     0.667166666667     0          
O        O      0.334800000000     0.333333333333     0.666666666667     0          
O        O      0.208200000000     0.414866666667     0.832833333333     0          
O        O      0.291800000000     0.585133333333     0.999500000000     0          
O        O      0.041800000000     0.914866666667     0.166166666667     0          
O        O      0.084800000000     0.833333333333     0.166666666667     0          
O        O      0.084200000000     0.888066666667     0.083333333333     0          
O        O      0.125000000000     0.916666666667     0.166666666667     0          
O        O      0.000000000000     0.778200000000     0.083333333333     0          
O        O      0.000000000000     0.833333333333     0.166666666667     0          
O        O      0.458200000000     0.751800000000     0.332833333333     0          
O        O      0.415200000000     0.833333333333     0.000000000000     0          
O        O      0.415800000000     0.778600000000     0.250000000000     0          
O        O      0.375000000000     0.750000000000     0.000000000000     0          
O        O      0.000000000000     0.888466666667     0.250000000000     0          
O        O      0.000000000000     0.833333333333     0.000000000000     0          
O        O      0.041800000000     0.751800000000     0.167166666667     0          
O        O      0.084200000000     0.778600000000     0.250000000000     0          
O        O      0.125000000000     0.750000000000     0.166666666667     0          
O        O      0.458200000000     0.914866666667     0.000500000000     0          
O        O      0.415800000000     0.888066666667     0.083333333333     0          
O        O      0.375000000000     0.916666666667     0.000000000000     0          
O        O      0.458200000000     0.751800000000     0.167166666667     0          
O        O      0.415200000000     0.833333333333     0.166666666667     0          
O        O      0.375000000000     0.750000000000     0.166666666667     0          
O        O      0.041800000000     0.914866666667     0.000500000000     0          
O        O      0.084800000000     0.833333333333     0.000000000000     0          
O        O      0.125000000000     0.916666666667     0.000000000000     0          
O        O      0.458200000000     0.914866666667     0.166166666667     0          
O        O      0.375000000000     0.916666666667     0.166666666667     0          
O        O      0.041800000000     0.751800000000     0.332833333333     0          
O        O      0.125000000000     0.750000000000     0.000000000000     0          
O        O      0.291800000000     0.748200000000     0.166166666667     0          
O        O      0.334800000000     0.666666666667     0.166666666667     0          
O        O      0.334200000000     0.721400000000     0.083333333333     0          
O        O      0.250000000000     0.944866666667     0.083333333333     0          
O        O      0.250000000000     0.666666666667     0.166666666667     0          
O        O      0.208200000000     0.918466666667     0.332833333333     0          
O        O      0.165200000000     0.666666666667     0.000000000000     0          
O        O      0.165800000000     0.945266666667     0.250000000000     0          
O        O      0.250000000000     0.721800000000     0.250000000000     0          
O        O      0.250000000000     0.666666666667     0.000000000000     0          
O        O      0.291800000000     0.918466666667     0.167166666667     0          
O        O      0.334200000000     0.945266666667     0.250000000000     0          
O        O      0.208200000000     0.748200000000     0.000500000000     0          
O        O      0.165800000000     0.721400000000     0.083333333333     0          
O        O      0.208200000000     0.918466666667     0.167166666667     0          
O        O      0.165200000000     0.666666666667     0.166666666667     0          
O        O      0.291800000000     0.748200000000     0.000500000000     0          
O        O      0.334800000000     0.666666666667     0.000000000000     0          
O        O      0.208200000000     0.748200000000     0.166166666667     0          
O        O      0.291800000000     0.918466666667     0.332833333333     0          
O        O      0.041800000000     0.914866666667     0.499500000000     0          
O        O      0.084800000000     0.833333333333     0.500000000000     0          
O        O      0.084200000000     0.888066666667     0.416666666667     0          
O        O      0.125000000000     0.916666666667     0.500000000000     0          
O        O      0.000000000000     0.778200000000     0.416666666667     0          
O        O      0.000000000000     0.833333333333     0.500000000000     0          
O        O      0.458200000000     0.751800000000     0.666166666667     0          
O        O      0.415200000000     0.833333333333     0.333333333333     0          
O        O      0.415800000000     0.778600000000     0.583333333333     0          
O        O      0.375000000000     0.750000000000     0.333333333333     0          
O        O      0.000000000000     0.888466666667     0.583333333333     0          
O        O      0.000000000000     0.833333333333     0.333333333333     0          
O        O      0.041800000000     0.751800000000     0.500500000000     0          
O        O      0.084200000000     0.778600000000     0.583333333333     0          
O        O      0.125000000000     0.750000000000     0.500000000000     0          
O        O      0.458200000000     0.914866666667     0.333833333333     0          
O        O      0.415800000000     0.888066666667     0.416666666667     0          
O        O      0.375000000000     0.916666666667     0.333333333333     0          
O        O      0.458200000000     0.751800000000     0.500500000000     0          
O        O      0.415200000000     0.833333333333     0.500000000000     0          
O        O      0.375000000000     0.750000000000     0.500000000000     0          
O        O      0.041800000000     0.914866666667     0.333833333333     0          
O        O      0.084800000000     0.833333333333     0.333333333333     0          
O        O      0.125000000000     0.916666666667     0.333333333333     0          
O        O      0.458200000000     0.914866666667     0.499500000000     0          
O        O      0.375000000000     0.916666666667     0.500000000000     0          
O        O      0.041800000000     0.751800000000     0.666166666667     0          
O        O      0.125000000000     0.750000000000     0.333333333333     0          
O        O      0.291800000000     0.748200000000     0.499500000000     0          
O        O      0.334800000000     0.666666666667     0.500000000000     0          
O        O      0.334200000000     0.721400000000     0.416666666667     0          
O        O      0.250000000000     0.944866666667     0.416666666667     0          
O        O      0.250000000000     0.666666666667     0.500000000000     0          
O        O      0.208200000000     0.918466666667     0.666166666667     0          
O        O      0.165200000000     0.666666666667     0.333333333333     0          
O        O      0.165800000000     0.945266666667     0.583333333333     0          
O        O      0.250000000000     0.721800000000     0.583333333333     0          
O        O      0.250000000000     0.666666666667     0.333333333333     0          
O        O      0.291800000000     0.918466666667     0.500500000000     0          
O        O      0.334200000000     0.945266666667     0.583333333333     0          
O        O      0.208200000000     0.748200000000     0.333833333333     0          
O        O      0.165800000000     0.721400000000     0.416666666667     0          
O        O      0.208200000000     0.918466666667     0.500500000000     0          
O        O      0.165200000000     0.666666666667     0.500000000000     0          
O        O      0.291800000000     0.748200000000     0.333833333333     0          
O        O      0.334800000000     0.666666666667     0.333333333333     0          
O        O      0.208200000000     0.748200000000     0.499500000000     0          
O        O      0.291800000000     0.918466666667     0.666166666667     0          
O        O      0.041800000000     0.914866666667     0.832833333333     0          
O        O      0.084800000000     0.833333333333     0.833333333333     0          
O        O      0.084200000000     0.888066666667     0.750000000000     0          
O        O      0.125000000000     0.916666666667     0.833333333333     0          
O        O      0.000000000000     0.778200000000     0.750000000000     0          
O        O      0.000000000000     0.833333333333     0.833333333333     0          
O        O      0.458200000000     0.751800000000     0.999500000000     0          
O        O      0.415200000000     0.833333333333     0.666666666667     0          
O        O      0.415800000000     0.778600000000     0.916666666667     0          
O        O      0.375000000000     0.750000000000     0.666666666667     0          
O        O      0.000000000000     0.888466666667     0.916666666667     0          
O        O      0.000000000000     0.833333333333     0.666666666667     0          
O        O      0.041800000000     0.751800000000     0.833833333333     0          
O        O      0.084200000000     0.778600000000     0.916666666667     0          
O        O      0.125000000000     0.750000000000     0.833333333333     0          
O        O      0.458200000000     0.914866666667     0.667166666667     0          
O        O      0.415800000000     0.888066666667     0.750000000000     0          
O        O      0.375000000000     0.916666666667     0.666666666667     0          
O        O      0.458200000000     0.751800000000     0.833833333333     0          
O        O      0.415200000000     0.833333333333     0.833333333333     0          
O        O      0.375000000000     0.750000000000     0.833333333333     0          
O        O      0.041800000000     0.914866666667     0.667166666667     0          
O        O      0.084800000000     0.833333333333     0.666666666667     0          
O        O      0.125000000000     0.916666666667     0.666666666667     0          
O        O      0.458200000000     0.914866666667     0.832833333333     0          
O        O      0.375000000000     0.916666666667     0.833333333333     0          
O        O      0.041800000000     0.751800000000     0.999500000000     0          
O        O      0.125000000000     0.750000000000     0.666666666667     0          
O        O      0.291800000000     0.748200000000     0.832833333333     0          
O        O      0.334800000000     0.666666666667     0.833333333333     0          
O        O      0.334200000000     0.721400000000     0.750000000000     0          
O        O      0.250000000000     0.944866666667     0.750000000000     0          
O        O      0.250000000000     0.666666666667     0.833333333333     0          
O        O      0.208200000000     0.918466666667     0.999500000000     0          
O        O      0.165200000000     0.666666666667     0.666666666667     0          
O        O      0.165800000000     0.945266666667     0.916666666667     0          
O        O      0.250000000000     0.721800000000     0.916666666667     0          
O        O      0.250000000000     0.666666666667     0.666666666667     0          
O        O      0.291800000000     0.918466666667     0.833833333333     0          
O        O      0.334200000000     0.945266666667     0.916666666667     0          
O        O      0.208200000000     0.748200000000     0.667166666667     0          
O        O      0.165800000000     0.721400000000     0.750000000000     0          
O        O      0.208200000000     0.918466666667     0.833833333333     0          
O        O      0.165200000000     0.666666666667     0.833333333333     0          
O        O      0.291800000000     0.748200000000     0.667166666667     0          
O        O      0.334800000000     0.666666666667     0.666666666667     0          
O        O      0.208200000000     0.748200000000     0.832833333333     0          
O        O      0.291800000000     0.918466666667     0.999500000000     0          
O        O      0.541800000000     0.248200000000     0.166166666667     0          
O        O      0.584800000000     0.166666666667     0.166666666667     0          
O        O      0.584200000000     0.221400000000     0.083333333333     0          
O        O      0.625000000000     0.250000000000     0.166666666667     0          
O        O      0.500000000000     0.111533333333     0.083333333333     0          
O        O      0.500000000000     0.166666666667     0.166666666667     0          
O        O      0.958200000000     0.085133333333     0.332833333333     0          
O        O      0.915200000000     0.166666666667     0.000000000000     0          
O        O      0.915800000000     0.111933333333     0.250000000000     0          
O        O      0.875000000000     0.083333333333     0.000000000000     0          
O        O      0.500000000000     0.221800000000     0.250000000000     0          
O        O      0.500000000000     0.166666666667     0.000000000000     0          
O        O      0.541800000000     0.085133333333     0.167166666667     0          
O        O      0.584200000000     0.111933333333     0.250000000000     0          
O        O      0.625000000000     0.083333333333     0.166666666667     0          
O        O      0.958200000000     0.248200000000     0.000500000000     0          
O        O      0.915800000000     0.221400000000     0.083333333333     0          
O        O      0.875000000000     0.250000000000     0.000000000000     0          
O        O      0.958200000000     0.085133333333     0.167166666667     0          
O        O      0.915200000000     0.166666666667     0.166666666667     0          
O        O      0.875000000000     0.083333333333     0.166666666667     0          
O        O      0.541800000000     0.248200000000     0.000500000000     0          
O        O      0.584800000000     0.166666666667     0.000000000000     0          
O        O      0.625000000000     0.250000000000     0.000000000000     0          
O        O      0.958200000000     0.248200000000     0.166166666667     0          
O        O      0.875000000000     0.250000000000     0.166666666667     0          
O        O      0.541800000000     0.085133333333     0.332833333333     0          
O        O      0.625000000000     0.083333333333     0.000000000000     0          
O        O      0.791800000000     0.081533333333     0.166166666667     0          
O        O      0.834800000000     0.000000000000     0.166666666667     0          
O        O      0.834200000000     0.054733333333     0.083333333333     0          
O        O      0.750000000000     0.278200000000     0.083333333333     0          
O        O      0.750000000000     0.000000000000     0.166666666667     0          
O        O      0.708200000000     0.251800000000     0.332833333333     0          
O        O      0.665200000000     0.000000000000     0.000000000000     0          
O        O      0.665800000000     0.278600000000     0.250000000000     0          
O        O      0.750000000000     0.055133333333     0.250000000000     0          
O        O      0.750000000000     0.000000000000     0.000000000000     0          
O        O      0.791800000000     0.251800000000     0.167166666667     0          
O        O      0.834200000000     0.278600000000     0.250000000000     0          
O        O      0.708200000000     0.081533333333     0.000500000000     0          
O        O      0.665800000000     0.054733333333     0.083333333333     0          
O        O      0.708200000000     0.251800000000     0.167166666667     0          
O        O      0.665200000000     0.000000000000     0.166666666667     0          
O        O      0.791800000000     0.081533333333     0.000500000000     0          
O        O      0.834800000000     0.000000000000     0.000000000000     0          
O        O      0.708200000000     0.081533333333     0.166166666667     0          
O        O      0.791800000000     0.251800000000     0.332833333333     0          
O        O      0.541800000000     0.248200000000     0.499500000000     0          
O        O      0.584800000000     0.166666666667     0.500000000000     0          
O        O      0.584200000000     0.221400000000     0.416666666667     0          
O        O      0.625000000000     0.250000000000     0.500000000000     0          
O        O      0.500000000000     0.111533333333     0.416666666667     0          
O        O      0.500000000000     0.166666666667     0.500000000000     0          
O        O      0.958200000000     0.085133333333     0.666166666667     0          
O        O      0.915200000000     0.166666666667     0.333333333333     0          
O        O      0.915800000000     0.111933333333     0.583333333333     0          
O        O      0.875000000000     0.083333333333     0.333333333333     0          
O        O      0.500000000000     0.221800000000     0.583333333333     0          
O        O      0.500000000000     0.166666666667     0.333333333333     0          
O        O      0.541800000000     0.085133333333     0.500500000000     0          
O        O      0.584200000000     0.111933333333     0.583333333333     0          
O        O      0.625000000000     0.083333333333     0.500000000000     0          
O        O      0.958200000000     0.248200000000     0.333833333333     0          
O        O      0.915800000000     0.221400000000     0.416666666667     0          
O        O      0.875000000000     0.250000000000     0.333333333333     0          
O        O      0.958200000000     0.085133333333     0.500500000000     0          
O        O      0.915200000000     0.166666666667     0.500000000000     0          
O        O      0.875000000000     0.083333333333     0.500000000000     0          
O        O      0.541800000000     0.248200000000     0.333833333333     0          
O        O      0.584800000000     0.166666666667     0.333333333333     0          
O        O      0.625000000000     0.250000000000     0.333333333333     0          
O        O      0.958200000000     0.248200000000     0.499500000000     0          
O        O      0.875000000000     0.250000000000     0.500000000000     0          
O        O      0.541800000000     0.085133333333     0.666166666667     0          
O        O      0.625000000000     0.083333333333     0.333333333333     0          
O        O      0.791800000000     0.081533333333     0.499500000000     0          
O        O      0.834800000000     0.000000000000     0.500000000000     0          
O        O      0.834200000000     0.054733333333     0.416666666667     0          
O        O      0.750000000000     0.278200000000     0.416666666667     0          
O        O      0.750000000000     0.000000000000     0.500000000000     0          
O        O      0.708200000000     0.251800000000     0.666166666667     0          
O        O      0.665200000000     0.000000000000     0.333333333333     0          
O        O      0.665800000000     0.278600000000     0.583333333333     0          
O        O      0.750000000000     0.055133333333     0.583333333333     0          
O        O      0.750000000000     0.000000000000     0.333333333333     0          
O        O      0.791800000000     0.251800000000     0.500500000000     0          
O        O      0.834200000000     0.278600000000     0.583333333333     0          
O        O      0.708200000000     0.081533333333     0.333833333333     0          
O        O      0.665800000000     0.054733333333     0.416666666667     0          
O        O      0.708200000000     0.251800000000     0.500500000000     0          
O        O      0.665200000000     0.000000000000     0.500000000000     0          
O        O      0.791800000000     0.081533333333     0.333833333333     0          
O        O      0.834800000000     0.000000000000     0.333333333333     0          
O        O      0.708200000000     0.081533333333     0.499500000000     0          
O        O      0.791800000000     0.251800000000     0.666166666667     0          
O        O      0.541800000000     0.248200000000     0.832833333333     0          
O        O      0.584800000000     0.166666666667     0.833333333333     0          
O        O      0.584200000000     0.221400000000     0.750000000000     0          
O        O      0.625000000000     0.250000000000     0.833333333333     0          
O        O      0.500000000000     0.111533333333     0.750000000000     0          
O        O      0.500000000000     0.166666666667     0.833333333333     0          
O        O      0.958200000000     0.085133333333     0.999500000000     0          
O        O      0.915200000000     0.166666666667     0.666666666667     0          
O        O      0.915800000000     0.111933333333     0.916666666667     0          
O        O      0.875000000000     0.083333333333     0.666666666667     0          
O        O      0.500000000000     0.221800000000     0.916666666667     0          
O        O      0.500000000000     0.166666666667     0.666666666667     0          
O        O      0.541800000000     0.085133333333     0.833833333333     0          
O        O      0.584200000000     0.111933333333     0.916666666667     0          
O        O      0.625000000000     0.083333333333     0.833333333333     0          
O        O      0.958200000000     0.248200000000     0.667166666667     0          
O        O      0.915800000000     0.221400000000     0.750000000000     0          
O        O      0.875000000000     0.250000000000     0.666666666667     0          
O        O      0.958200000000     0.085133333333     0.833833333333     0          
O        O      0.915200000000     0.166666666667     0.833333333333     0          
O        O      0.875000000000     0.083333333333     0.833333333333     0          
O        O      0.541800000000     0.248200000000     0.667166666667     0          
O        O      0.584800000000     0.166666666667     0.666666666667     0          
O        O      0.625000000000     0.250000000000     0.666666666667     0          
O        O      0.958200000000     0.248200000000     0.832833333333     0          
O        O      0.875000000000     0.250000000000     0.833333333333     0          
O        O      0.541800000000     0.085133333333     0.999500000000     0          
O        O      0.625000000000     0.083333333333     0.666666666667     0          
O        O      0.791800000000     0.081533333333     0.832833333333     0          
O        O      0.834800000000     0.000000000000     0.833333333333     0          
O        O      0.834200000000     0.054733333333     0.750000000000     0          
O        O      0.750000000000     0.278200000000     0.750000000000     0          
O        O      0.750000000000     0.000000000000     0.833333333333     0          
O        O      0.708200000000     0.251800000000     0.999500000000     0          
O        O      0.665200000000     0.000000000000     0.666666666667     0          
O        O      0.665800000000     0.278600000000     0.916666666667     0          
O        O      0.750000000000     0.055133333333     0.916666666667     0          
O        O      0.750000000000     0.000000000000     0.666666666667     0          
O        O      0.791800000000     0.251800000000     0.833833333333     0          
O        O      0.834200000000     0.278600000000     0.916666666667     0          
O        O      0.708200000000     0.081533333333     0.667166666667     0          
O        O      0.665800000000     0.054733333333     0.750000000000     0          
O        O      0.708200000000     0.251800000000     0.833833333333     0          
O        O      0.665200000000     0.000000000000     0.833333333333     0          
O        O      0.791800000000     0.081533333333     0.667166666667     0          
O        O      0.834800000000     0.000000000000     0.666666666667     0          
O        O      0.708200000000     0.081533333333     0.832833333333     0          
O        O      0.791800000000     0.251800000000     0.999500000000     0          
O        O      0.541800000000     0.581533333333     0.166166666667     0          
O        O      0.584800000000     0.500000000000     0.166666666667     0          
O        O      0.584200000000     0.554733333333     0.083333333333     0          
O        O      0.625000000000     0.583333333333     0.166666666667     0          
O        O      0.500000000000     0.444866666667     0.083333333333     0          
O        O      0.500000000000     0.500000000000     0.166666666667     0          
O        O      0.958200000000     0.418466666667     0.332833333333     0          
O        O      0.915200000000     0.500000000000     0.000000000000     0          
O        O      0.915800000000     0.445266666667     0.250000000000     0          
O        O      0.875000000000     0.416666666667     0.000000000000     0          
O        O      0.500000000000     0.555133333333     0.250000000000     0          
O        O      0.500000000000     0.500000000000     0.000000000000     0          
O        O      0.541800000000     0.418466666667     0.167166666667     0          
O        O      0.584200000000     0.445266666667     0.250000000000     0          
O        O      0.625000000000     0.416666666667     0.166666666667     0          
O        O      0.958200000000     0.581533333333     0.000500000000     0          
O        O      0.915800000000     0.554733333333     0.083333333333     0          
O        O      0.875000000000     0.583333333333     0.000000000000     0          
O        O      0.958200000000     0.418466666667     0.167166666667     0          
O        O      0.915200000000     0.500000000000     0.166666666667     0          
O        O      0.875000000000     0.416666666667     0.166666666667     0          
O        O      0.541800000000     0.581533333333     0.000500000000     0          
O        O      0.584800000000     0.500000000000     0.000000000000     0          
O        O      0.625000000000     0.583333333333     0.000000000000     0          
O        O      0.958200000000     0.581533333333     0.166166666667     0          
O        O      0.875000000000     0.583333333333     0.166666666667     0          
O        O      0.541800000000     0.418466666667     0.332833333333     0          
O        O      0.625000000000     0.416666666667     0.000000000000     0          
O        O      0.791800000000     0.414866666667     0.166166666667     0          
O        O      0.834800000000     0.333333333333     0.166666666667     0          
O        O      0.834200000000     0.388066666667     0.083333333333     0          
O        O      0.750000000000     0.611533333333     0.083333333333     0          
O        O      0.750000000000     0.333333333333     0.166666666667     0          
O        O      0.708200000000     0.585133333333     0.332833333333     0          
O        O      0.665200000000     0.333333333333     0.000000000000     0          
O        O      0.665800000000     0.611933333333     0.250000000000     0          
O        O      0.750000000000     0.388466666667     0.250000000000     0          
O        O      0.750000000000     0.333333333333     0.000000000000     0          
O        O      0.791800000000     0.585133333333     0.167166666667     0          
O        O      0.834200000000     0.611933333333     0.250000000000     0          
O        O      0.708200000000     0.414866666667     0.000500000000     0          
O        O      0.665800000000     0.388066666667     0.083333333333     0          
O        O      0.708200000000     0.585133333333     0.167166666667     0          
O        O      0.665200000000     0.333333333333     0.166666666667     0          
O        O      0.791800000000     0.414866666667     0.000500000000     0          
O        O      0.834800000000     0.333333333333     0.000000000000     0          
O        O      0.708200000000     0.414866666667     0.166166666667     0          
O        O      0.791800000000     0.585133333333     0.332833333333     0          
O        O      0.541800000000     0.581533333333     0.499500000000     0          
O        O      0.584800000000     0.500000000000     0.500000000000     0          
O        O      0.584200000000     0.554733333333     0.416666666667     0          
O        O      0.625000000000     0.583333333333     0.500000000000     0          
O        O      0.500000000000     0.444866666667     0.416666666667     0          
O        O      0.500000000000     0.500000000000     0.500000000000     0          
O        O      0.958200000000     0.418466666667     0.666166666667     0          
O        O      0.915200000000     0.500000000000     0.333333333333     0          
O        O      0.915800000000     0.445266666667     0.583333333333     0          
O        O      0.875000000000     0.416666666667     0.333333333333     0          
O        O      0.500000000000     0.555133333333     0.583333333333     0          
O        O      0.500000000000     0.500000000000     0.333333333333     0          
O        O      0.541800000000     0.418466666667     0.500500000000     0          
O        O      0.584200000000     0.445266666667     0.583333333333     0          
O        O      0.625000000000     0.416666666667     0.500000000000     0          
O        O      0.958200000000     0.581533333333     0.333833333333     0          
O        O      0.915800000000     0.554733333333     0.416666666667     0          
O        O      0.875000000000     0.583333333333     0.333333333333     0          
O        O      0.958200000000     0.418466666667     0.500500000000     0          
O        O      0.915200000000     0.500000000000     0.500000000000     0          
O        O      0.875000000000     0.416666666667     0.500000000000     0          
O        O      0.541800000000     0.581533333333     0.333833333333     0          
O        O      0.584800000000     0.500000000000     0.333333333333     0          
O        O      0.625000000000     0.583333333333     0.333333333333     0          
O        O      0.958200000000     0.581533333333     0.499500000000     0          
O        O      0.875000000000     0.583333333333     0.500000000000     0          
O        O      0.541800000000     0.418466666667     0.666166666667     0          
O        O      0.625000000000     0.416666666667     0.333333333333     0          
O        O      0.791800000000     0.414866666667     0.499500000000     0          
O        O      0.834800000000     0.333333333333     0.500000000000     0          
O        O      0.834200000000     0.388066666667     0.416666666667     0          
O        O      0.750000000000     0.611533333333     0.416666666667     0          
O        O      0.750000000000     0.333333333333     0.500000000000     0          
O        O      0.708200000000     0.585133333333     0.666166666667     0          
O        O      0.665200000000     0.333333333333     0.333333333333     0          
O        O      0.665800000000     0.611933333333     0.583333333333     0          
O        O      0.750000000000     0.388466666667     0.583333333333     0          
O        O      0.750000000000     0.333333333333     0.333333333333     0          
O        O      0.791800000000     0.585133333333     0.500500000000     0          
O        O      0.834200000000     0.611933333333     0.583333333333     0          
O        O      0.708200000000     0.414866666667     0.333833333333     0          
O        O      0.665800000000     0.388066666667     0.416666666667     0          
O        O      0.708200000000     0.585133333333     0.500500000000     0          
O        O      0.665200000000     0.333333333333     0.500000000000     0          
O        O      0.791800000000     0.414866666667     0.333833333333     0          
O        O      0.834800000000     0.333333333333     0.333333333333     0          
O        O      0.708200000000     0.414866666667     0.499500000000     0          
O        O      0.791800000000     0.585133333333     0.666166666667     0          
O        O      0.541800000000     0.581533333333     0.832833333333     0          
O        O      0.584800000000     0.500000000000     0.833333333333     0          
O        O      0.584200000000     0.554733333333     0.750000000000     0          
O        O      0.625000000000     0.583333333333     0.833333333333     0          
O        O      0.500000000000     0.444866666667     0.750000000000     0          
O        O      0.500000000000     0.500000000000     0.833333333333     0          
O        O      0.958200000000     0.418466666667     0.999500000000     0          
O        O      0.915200000000     0.500000000000     0.666666666667     0          
O        O      0.915800000000     0.445266666667     0.916666666667     0          
O        O      0.875000000000     0.416666666667     0.666666666667     0          
O        O      0.500000000000     0.555133333333     0.916666666667     0          
O        O      0.500000000000     0.500000000000     0.666666666667     0          
O        O      0.541800000000     0.418466666667     0.833833333333     0          
O        O      0.584200000000     0.445266666667     0.916666666667     0          
O        O      0.625000000000     0.416666666667     0.833333333333     0          
O        O      0.958200000000     0.581533333333     0.667166666667     0          
O        O      0.915800000000     0.554733333333     0.750000000000     0          
O        O      0.875000000000     0.583333333333     0.666666666667     0          
O        O      0.958200000000     0.418466666667     0.833833333333     0          
O        O      0.915200000000     0.500000000000     0.833333333333     0          
O        O      0.875000000000     0.416666666667     0.833333333333     0          
O        O      0.541800000000     0.581533333333     0.667166666667     0          
O        O      0.584800000000     0.500000000000     0.666666666667     0          
O        O      0.625000000000     0.583333333333     0.666666666667     0          
O        O      0.958200000000     0.581533333333     0.832833333333     0          
O        O      0.875000000000     0.583333333333     0.833333333333     0          
O        O      0.541800000000     0.418466666667     0.999500000000     0          
O        O      0.625000000000     0.416666666667     0.666666666667     0          
O        O      0.791800000000     0.414866666667     0.832833333333     0          
O        O      0.834800000000     0.333333333333     0.833333333333     0          
O        O      0.834200000000     0.388066666667     0.750000000000     0          
O        O      0.750000000000     0.611533333333     0.750000000000     0          
O        O      0.750000000000     0.333333333333     0.833333333333     0          
O        O      0.708200000000     0.585133333333     0.999500000000     0          
O        O      0.665200000000     0.333333333333     0.666666666667     0          
O        O      0.665800000000     0.611933333333     0.916666666667     0          
O        O      0.750000000000     0.388466666667     0.916666666667     0          
O        O      0.750000000000     0.333333333333     0.666666666667     0          
O        O      0.791800000000     0.585133333333     0.833833333333     0          
O        O      0.834200000000     0.611933333333     0.916666666667     0          
O        O      0.708200000000     0.414866666667     0.667166666667     0          
O        O      0.665800000000     0.388066666667     0.750000000000     0          
O        O      0.708200000000     0.585133333333     0.833833333333     0          
O        O      0.665200000000     0.333333333333     0.833333333333     0          
O        O      0.791800000000     0.414866666667     0.667166666667     0          
O        O      0.834800000000     0.333333333333     0.666666666667     0          
O        O      0.708200000000     0.414866666667     0.832833333333     0          
O        O      0.791800000000     0.585133333333     0.999500000000     0          
O        O      0.541800000000     0.914866666667     0.166166666667     0          
O        O      0.584800000000     0.833333333333     0.166666666667     0          
O        O      0.584200000000     0.888066666667     0.083333333333     0          
O        O      0.625000000000     0.916666666667     0.166666666667     0          
O        O      0.500000000000     0.778200000000     0.083333333333     0          
O        O      0.500000000000     0.833333333333     0.166666666667     0          
O        O      0.958200000000     0.751800000000     0.332833333333     0          
O        O      0.915200000000     0.833333333333     0.000000000000     0          
O        O      0.915800000000     0.778600000000     0.250000000000     0          
O        O      0.875000000000     0.750000000000     0.000000000000     0          
O        O      0.500000000000     0.888466666667     0.250000000000     0          
O        O      0.500000000000     0.833333333333     0.000000000000     0          
O        O      0.541800000000     0.751800000000     0.167166666667     0          
O        O      0.584200000000     0.778600000000     0.250000000000     0          
O        O      0.625000000000     0.750000000000     0.166666666667     0          
O        O      0.958200000000     0.914866666667     0.000500000000     0          
O        O      0.915800000000     0.888066666667     0.083333333333     0          
O        O      0.875000000000     0.916666666667     0.000000000000     0          
O        O      0.958200000000     0.751800000000     0.167166666667     0          
O        O      0.915200000000     0.833333333333     0.166666666667     0          
O        O      0.875000000000     0.750000000000     0.166666666667     0          
O        O      0.541800000000     0.914866666667     0.000500000000     0          
O        O      0.584800000000     0.833333333333     0.000000000000     0          
O        O      0.625000000000     0.916666666667     0.000000000000     0          
O        O      0.958200000000     0.914866666667     0.166166666667     0          
O        O      0.875000000000     0.916666666667     0.166666666667     0          
O        O      0.541800000000     0.751800000000     0.332833333333     0          
O        O      0.625000000000     0.750000000000     0.000000000000     0          
O        O      0.791800000000     0.748200000000     0.166166666667     0          
O        O      0.834800000000     0.666666666667     0.166666666667     0          
O        O      0.834200000000     0.721400000000     0.083333333333     0          
O        O      0.750000000000     0.944866666667     0.083333333333     0          
O        O      0.750000000000     0.666666666667     0.166666666667     0          
O        O      0.708200000000     0.918466666667     0.332833333333     0          
O        O      0.665200000000     0.666666666667     0.000000000000     0          
O        O      0.665800000000     0.945266666667     0.250000000000     0          
O        O      0.750000000000     0.721800000000     0.250000000000     0          
O        O      0.750000000000     0.666666666667     0.000000000000     0          
O        O      0.791800000000     0.918466666667     0.167166666667     0          
O        O      0.834200000000     0.945266666667     0.250000000000     0          
O        O      0.708200000000     0.748200000000     0.000500000000     0          
O        O      0.665800000000     0.721400000000     0.083333333333     0          
O        O      0.708200000000     0.918466666667     0.167166666667     0          
O        O      0.665200000000     0.666666666667     0.166666666667     0          
O        O      0.791800000000     0.748200000000     0.000500000000     0          
O        O      0.834800000000     0.666666666667     0.000000000000     0          
O        O      0.708200000000     0.748200000000     0.166166666667     0          
O        O      0.791800000000     0.918466666667     0.332833333333     0          
O        O      0.541800000000     0.914866666667     0.499500000000     0          
O        O      0.584800000000     0.833333333333     0.500000000000     0          
O        O      0.584200000000     0.888066666667     0.416666666667     0          
O        O      0.625000000000     0.916666666667     0.500000000000     0          
O        O      0.500000000000     0.778200000000     0.416666666667     0          
O        O      0.500000000000     0.833333333333     0.500000000000     0          
O        O      0.958200000000     0.751800000000     0.666166666667     0          
O        O      0.915200000000     0.833333333333     0.333333333333     0          
O        O      0.915800000000     0.778600000000     0.583333333333     0          
O        O      0.875000000000     0.750000000000     0.333333333333     0          
O        O      0.500000000000     0.888466666667     0.583333333333     0          
O        O      0.500000000000     0.833333333333     0.333333333333     0          
O        O      0.541800000000     0.751800000000     0.500500000000     0          
O        O      0.584200000000     0.778600000000     0.583333333333     0          
O        O      0.625000000000     0.750000000000     0.500000000000     0          
O        O      0.958200000000     0.914866666667     0.333833333333     0          
O        O      0.915800000000     0.888066666667     0.416666666667     0          
O        O      0.875000000000     0.916666666667     0.333333333333     0          
O        O      0.958200000000     0.751800000000     0.500500000000     0          
O        O      0.915200000000     0.833333333333     0.500000000000     0          
O        O      0.875000000000     0.750000000000     0.500000000000     0          
O        O      0.541800000000     0.914866666667     0.333833333333     0          
O        O      0.584800000000     0.833333333333     0.333333333333     0          
O        O      0.625000000000     0.916666666667     0.333333333333     0          
O        O      0.958200000000     0.914866666667     0.499500000000     0          
O        O      0.875000000000     0.916666666667     0.500000000000     0          
O        O      0.541800000000     0.751800000000     0.666166666667     0          
O        O      0.625000000000     0.750000000000     0.333333333333     0          
O        O      0.791800000000     0.748200000000     0.499500000000     0          
O        O      0.834800000000     0.666666666667     0.500000000000     0          
O        O      0.834200000000     0.721400000000     0.416666666667     0          
O        O      0.750000000000     0.944866666667     0.416666666667     0          
O        O      0.750000000000     0.666666666667     0.500000000000     0          
O        O      0.708200000000     0.918466666667     0.666166666667     0          
O        O      0.665200000000     0.666666666667     0.333333333333     0          
O        O      0.665800000000     0.945266666667     0.583333333333     0          
O        O      0.750000000000     0.721800000000     0.583333333333     0          
O        O      0.750000000000     0.666666666667     0.333333333333     0          
O        O      0.791800000000     0.918466666667     0.500500000000     0          
O        O      0.834200000000     0.945266666667     0.583333333333     0          
O        O      0.708200000000     0.748200000000     0.333833333333     0          
O        O      0.665800000000     0.721400000000     0.416666666667     0          
O        O      0.708200000000     0.918466666667     0.500500000000     0          
O        O      0.665200000000     0.666666666667     0.500000000000     0          
O        O      0.791800000000     0.748200000000     0.333833333333     0          
O        O      0.834800000000     0.666666666667     0.333333333333     0          
O        O      0.708200000000     0.748200000000     0.499500000000     0          
O        O      0.791800000000     0.918466666667     0.666166666667     0          
O        O      0.541800000000     0.914866666667     0.832833333333     0          
O        O      0.584800000000     0.833333333333     0.833333333333     0          
O        O      0.584200000000     0.888066666667     0.750000000000     0          
O        O      0.625000000000     0.916666666667     0.833333333333     0          
O        O      0.500000000000     0.778200000000     0.750000000000     0          
O        O      0.500000000000     0.833333333333     0.833333333333     0          
O        O      0.958200000000     0.751800000000     0.999500000000     0          
O        O      0.915200000000     0.833333333333     0.666666666667     0          
O        O      0.915800000000     0.778600000000     0.916666666667     0          
O        O      0.875000000000     0.750000000000     0.666666666667     0          
O        O      0.500000000000     0.888466666667     0.916666666667     0          
O        O      0.500000000000     0.833333333333     0.666666666667     0          
O        O      0.541800000000     0.751800000000     0.833833333333     0          
O        O      0.584200000000     0.778600000000     0.916666666667     0          
O        O      0.625000000000     0.750000000000     0.833333333333     0          
O        O      0.958200000000     0.914866666667     0.667166666667     0          
O        O      0.915800000000     0.888066666667     0.750000000000     0          
O        O      0.875000000000     0.916666666667     0.666666666667     0          
O        O      0.958200000000     0.751800000000     0.833833333333     0          
O        O      0.915200000000     0.833333333333     0.833333333333     0          
O        O      0.875000000000     0.750000000000     0.833333333333     0          
O        O      0.541800000000     0.914866666667     0.667166666667     0          
O        O      0.584800000000     0.833333333333     0.666666666667     0          
O        O      0.625000000000     0.916666666667     0.666666666667     0          
O        O      0.958200000000     0.914866666667     0.832833333333     0          
O        O      0.875000000000     0.916666666667     0.833333333333     0          
O        O      0.541800000000     0.751800000000     0.999500000000     0          
O        O      0.625000000000     0.750000000000     0.666666666667     0          
O        O      0.791800000000     0.748200000000     0.832833333333     0          
O        O      0.834800000000     0.666666666667     0.833333333333     0          
O        O      0.834200000000     0.721400000000     0.750000000000     0          
O        O      0.750000000000     0.944866666667     0.750000000000     0          
O        O      0.750000000000     0.666666666667     0.833333333333     0          
O        O      0.708200000000     0.918466666667     0.999500000000     0          
O        O      0.665200000000     0.666666666667     0.666666666667     0          
O        O      0.665800000000     0.945266666667     0.916666666667     0          
O        O      0.750000000000     0.721800000000     0.916666666667     0          
O        O      0.750000000000     0.666666666667     0.666666666667     0          
O        O      0.791800000000     0.918466666667     0.833833333333     0          
O        O      0.834200000000     0.945266666667     0.916666666667     0          
O        O      0.708200000000     0.748200000000     0.667166666667     0          
O        O      0.665800000000     0.721400000000     0.750000000000     0          
O        O      0.708200000000     0.918466666667     0.833833333333     0          
O        O      0.665200000000     0.666666666667     0.833333333333     0          
O        O      0.791800000000     0.748200000000     0.667166666667     0          
O        O      0.834800000000     0.666666666667     0.666666666667     0          
O        O      0.708200000000     0.748200000000     0.832833333333     0          
O        O      0.791800000000     0.918466666667     0.999500000000     0          


