data_zeolite

_audit_creation_method RASPA-1.0
_audit_creation_date 2021-6-7
_audit_author_name ''

_cell_length_a    17.21
_cell_length_b    17.21
_cell_length_c    12.792
_cell_angle_alpha 90
_cell_angle_beta  90
_cell_angle_gamma 120
_cell_volume      39374.2

_symmetry_cell_setting          hexagonal
_symmetry_space_group_name_Hall 'P 1'
_symmetry_space_group_name_H-M  'P 1'
_symmetry_Int_Tables_number     1

_symmetry_equiv_pos_as_xyz 'x,y,z'

loop_
_atom_site_label
_atom_site_type_symbol
_atom_site_fract_x
_atom_site_fract_y
_atom_site_fract_z
_atom_site_charge
T        Si     0.244000000000     0.166950000000     0.040533333333     0          
T        Si     0.151350000000     0.000000000000     0.065266666667     0          
T        Si     0.091150000000     0.000000000000     0.126200000000     0          
T        Si     0.093000000000     0.000000000000     0.000000000000     0          
T        Si     0.077050000000     0.244000000000     0.040533333333     0          
T        Si     0.151350000000     0.151350000000     0.065266666667     0          
T        Si     0.091150000000     0.091150000000     0.126200000000     0          
T        Si     0.093000000000     0.093000000000     0.000000000000     0          
T        Si     0.333050000000     0.077050000000     0.040533333333     0          
T        Si     0.000000000000     0.151350000000     0.065266666667     0          
T        Si     0.000000000000     0.091150000000     0.126200000000     0          
T        Si     0.000000000000     0.093000000000     0.000000000000     0          
T        Si     0.256000000000     0.333050000000     0.040533333333     0          
T        Si     0.348650000000     0.000000000000     0.065266666667     0          
T        Si     0.408850000000     0.000000000000     0.126200000000     0          
T        Si     0.407000000000     0.000000000000     0.000000000000     0          
T        Si     0.422950000000     0.256000000000     0.040533333333     0          
T        Si     0.348650000000     0.348650000000     0.065266666667     0          
T        Si     0.408850000000     0.408850000000     0.126200000000     0          
T        Si     0.407000000000     0.407000000000     0.000000000000     0          
T        Si     0.166950000000     0.422950000000     0.040533333333     0          
T        Si     0.000000000000     0.348650000000     0.065266666667     0          
T        Si     0.000000000000     0.408850000000     0.126200000000     0          
T        Si     0.000000000000     0.407000000000     0.000000000000     0          
T        Si     0.333050000000     0.256000000000     0.292800000000     0          
T        Si     0.000000000000     0.348650000000     0.268066666667     0          
T        Si     0.000000000000     0.408850000000     0.207133333333     0          
T        Si     0.077050000000     0.333050000000     0.292800000000     0          
T        Si     0.151350000000     0.000000000000     0.268066666667     0          
T        Si     0.091150000000     0.000000000000     0.207133333333     0          
T        Si     0.244000000000     0.077050000000     0.292800000000     0          
T        Si     0.151350000000     0.151350000000     0.268066666667     0          
T        Si     0.091150000000     0.091150000000     0.207133333333     0          
T        Si     0.166950000000     0.244000000000     0.292800000000     0          
T        Si     0.000000000000     0.151350000000     0.268066666667     0          
T        Si     0.000000000000     0.091150000000     0.207133333333     0          
T        Si     0.422950000000     0.166950000000     0.292800000000     0          
T        Si     0.348650000000     0.000000000000     0.268066666667     0          
T        Si     0.408850000000     0.000000000000     0.207133333333     0          
T        Si     0.256000000000     0.422950000000     0.292800000000     0          
T        Si     0.348650000000     0.348650000000     0.268066666667     0          
T        Si     0.408850000000     0.408850000000     0.207133333333     0          
T        Si     0.256000000000     0.333050000000     0.292800000000     0          
T        Si     0.422950000000     0.256000000000     0.292800000000     0          
T        Si     0.166950000000     0.422950000000     0.292800000000     0          
T        Si     0.244000000000     0.166950000000     0.292800000000     0          
T        Si     0.077050000000     0.244000000000     0.292800000000     0          
T        Si     0.333050000000     0.077050000000     0.292800000000     0          
T        Si     0.166950000000     0.244000000000     0.040533333333     0          
T        Si     0.422950000000     0.166950000000     0.040533333333     0          
T        Si     0.256000000000     0.422950000000     0.040533333333     0          
T        Si     0.333050000000     0.256000000000     0.040533333333     0          
T        Si     0.077050000000     0.333050000000     0.040533333333     0          
T        Si     0.244000000000     0.077050000000     0.040533333333     0          
T        Si     0.244000000000     0.166950000000     0.373866666667     0          
T        Si     0.151350000000     0.000000000000     0.398600000000     0          
T        Si     0.091150000000     0.000000000000     0.459533333333     0          
T        Si     0.093000000000     0.000000000000     0.333333333333     0          
T        Si     0.077050000000     0.244000000000     0.373866666667     0          
T        Si     0.151350000000     0.151350000000     0.398600000000     0          
T        Si     0.091150000000     0.091150000000     0.459533333333     0          
T        Si     0.093000000000     0.093000000000     0.333333333333     0          
T        Si     0.333050000000     0.077050000000     0.373866666667     0          
T        Si     0.000000000000     0.151350000000     0.398600000000     0          
T        Si     0.000000000000     0.091150000000     0.459533333333     0          
T        Si     0.000000000000     0.093000000000     0.333333333333     0          
T        Si     0.256000000000     0.333050000000     0.373866666667     0          
T        Si     0.348650000000     0.000000000000     0.398600000000     0          
T        Si     0.408850000000     0.000000000000     0.459533333333     0          
T        Si     0.407000000000     0.000000000000     0.333333333333     0          
T        Si     0.422950000000     0.256000000000     0.373866666667     0          
T        Si     0.348650000000     0.348650000000     0.398600000000     0          
T        Si     0.408850000000     0.408850000000     0.459533333333     0          
T        Si     0.407000000000     0.407000000000     0.333333333333     0          
T        Si     0.166950000000     0.422950000000     0.373866666667     0          
T        Si     0.000000000000     0.348650000000     0.398600000000     0          
T        Si     0.000000000000     0.408850000000     0.459533333333     0          
T        Si     0.000000000000     0.407000000000     0.333333333333     0          
T        Si     0.333050000000     0.256000000000     0.626133333333     0          
T        Si     0.000000000000     0.348650000000     0.601400000000     0          
T        Si     0.000000000000     0.408850000000     0.540466666667     0          
T        Si     0.077050000000     0.333050000000     0.626133333333     0          
T        Si     0.151350000000     0.000000000000     0.601400000000     0          
T        Si     0.091150000000     0.000000000000     0.540466666667     0          
T        Si     0.244000000000     0.077050000000     0.626133333333     0          
T        Si     0.151350000000     0.151350000000     0.601400000000     0          
T        Si     0.091150000000     0.091150000000     0.540466666667     0          
T        Si     0.166950000000     0.244000000000     0.626133333333     0          
T        Si     0.000000000000     0.151350000000     0.601400000000     0          
T        Si     0.000000000000     0.091150000000     0.540466666667     0          
T        Si     0.422950000000     0.166950000000     0.626133333333     0          
T        Si     0.348650000000     0.000000000000     0.601400000000     0          
T        Si     0.408850000000     0.000000000000     0.540466666667     0          
T        Si     0.256000000000     0.422950000000     0.626133333333     0          
T        Si     0.348650000000     0.348650000000     0.601400000000     0          
T        Si     0.408850000000     0.408850000000     0.540466666667     0          
T        Si     0.256000000000     0.333050000000     0.626133333333     0          
T        Si     0.422950000000     0.256000000000     0.626133333333     0          
T        Si     0.166950000000     0.422950000000     0.626133333333     0          
T        Si     0.244000000000     0.166950000000     0.626133333333     0          
T        Si     0.077050000000     0.244000000000     0.626133333333     0          
T        Si     0.333050000000     0.077050000000     0.626133333333     0          
T        Si     0.166950000000     0.244000000000     0.373866666667     0          
T        Si     0.422950000000     0.166950000000     0.373866666667     0          
T        Si     0.256000000000     0.422950000000     0.373866666667     0          
T        Si     0.333050000000     0.256000000000     0.373866666667     0          
T        Si     0.077050000000     0.333050000000     0.373866666667     0          
T        Si     0.244000000000     0.077050000000     0.373866666667     0          
T        Si     0.244000000000     0.166950000000     0.707200000000     0          
T        Si     0.151350000000     0.000000000000     0.731933333333     0          
T        Si     0.091150000000     0.000000000000     0.792866666667     0          
T        Si     0.093000000000     0.000000000000     0.666666666667     0          
T        Si     0.077050000000     0.244000000000     0.707200000000     0          
T        Si     0.151350000000     0.151350000000     0.731933333333     0          
T        Si     0.091150000000     0.091150000000     0.792866666667     0          
T        Si     0.093000000000     0.093000000000     0.666666666667     0          
T        Si     0.333050000000     0.077050000000     0.707200000000     0          
T        Si     0.000000000000     0.151350000000     0.731933333333     0          
T        Si     0.000000000000     0.091150000000     0.792866666667     0          
T        Si     0.000000000000     0.093000000000     0.666666666667     0          
T        Si     0.256000000000     0.333050000000     0.707200000000     0          
T        Si     0.348650000000     0.000000000000     0.731933333333     0          
T        Si     0.408850000000     0.000000000000     0.792866666667     0          
T        Si     0.407000000000     0.000000000000     0.666666666667     0          
T        Si     0.422950000000     0.256000000000     0.707200000000     0          
T        Si     0.348650000000     0.348650000000     0.731933333333     0          
T        Si     0.408850000000     0.408850000000     0.792866666667     0          
T        Si     0.407000000000     0.407000000000     0.666666666667     0          
T        Si     0.166950000000     0.422950000000     0.707200000000     0          
T        Si     0.000000000000     0.348650000000     0.731933333333     0          
T        Si     0.000000000000     0.408850000000     0.792866666667     0          
T        Si     0.000000000000     0.407000000000     0.666666666667     0          
T        Si     0.333050000000     0.256000000000     0.959466666667     0          
T        Si     0.000000000000     0.348650000000     0.934733333333     0          
T        Si     0.000000000000     0.408850000000     0.873800000000     0          
T        Si     0.077050000000     0.333050000000     0.959466666667     0          
T        Si     0.151350000000     0.000000000000     0.934733333333     0          
T        Si     0.091150000000     0.000000000000     0.873800000000     0          
T        Si     0.244000000000     0.077050000000     0.959466666667     0          
T        Si     0.151350000000     0.151350000000     0.934733333333     0          
T        Si     0.091150000000     0.091150000000     0.873800000000     0          
T        Si     0.166950000000     0.244000000000     0.959466666667     0          
T        Si     0.000000000000     0.151350000000     0.934733333333     0          
T        Si     0.000000000000     0.091150000000     0.873800000000     0          
T        Si     0.422950000000     0.166950000000     0.959466666667     0          
T        Si     0.348650000000     0.000000000000     0.934733333333     0          
T        Si     0.408850000000     0.000000000000     0.873800000000     0          
T        Si     0.256000000000     0.422950000000     0.959466666667     0          
T        Si     0.348650000000     0.348650000000     0.934733333333     0          
T        Si     0.408850000000     0.408850000000     0.873800000000     0          
T        Si     0.256000000000     0.333050000000     0.959466666667     0          
T        Si     0.422950000000     0.256000000000     0.959466666667     0          
T        Si     0.166950000000     0.422950000000     0.959466666667     0          
T        Si     0.244000000000     0.166950000000     0.959466666667     0          
T        Si     0.077050000000     0.244000000000     0.959466666667     0          
T        Si     0.333050000000     0.077050000000     0.959466666667     0          
T        Si     0.166950000000     0.244000000000     0.707200000000     0          
T        Si     0.422950000000     0.166950000000     0.707200000000     0          
T        Si     0.256000000000     0.422950000000     0.707200000000     0          
T        Si     0.333050000000     0.256000000000     0.707200000000     0          
T        Si     0.077050000000     0.333050000000     0.707200000000     0          
T        Si     0.244000000000     0.077050000000     0.707200000000     0          
T        Si     0.244000000000     0.666950000000     0.040533333333     0          
T        Si     0.151350000000     0.500000000000     0.065266666667     0          
T        Si     0.091150000000     0.500000000000     0.126200000000     0          
T        Si     0.093000000000     0.500000000000     0.000000000000     0          
T        Si     0.077050000000     0.744000000000     0.040533333333     0          
T        Si     0.151350000000     0.651350000000     0.065266666667     0          
T        Si     0.091150000000     0.591150000000     0.126200000000     0          
T        Si     0.093000000000     0.593000000000     0.000000000000     0          
T        Si     0.333050000000     0.577050000000     0.040533333333     0          
T        Si     0.000000000000     0.651350000000     0.065266666667     0          
T        Si     0.000000000000     0.591150000000     0.126200000000     0          
T        Si     0.000000000000     0.593000000000     0.000000000000     0          
T        Si     0.256000000000     0.833050000000     0.040533333333     0          
T        Si     0.348650000000     0.500000000000     0.065266666667     0          
T        Si     0.408850000000     0.500000000000     0.126200000000     0          
T        Si     0.407000000000     0.500000000000     0.000000000000     0          
T        Si     0.422950000000     0.756000000000     0.040533333333     0          
T        Si     0.348650000000     0.848650000000     0.065266666667     0          
T        Si     0.408850000000     0.908850000000     0.126200000000     0          
T        Si     0.407000000000     0.907000000000     0.000000000000     0          
T        Si     0.166950000000     0.922950000000     0.040533333333     0          
T        Si     0.000000000000     0.848650000000     0.065266666667     0          
T        Si     0.000000000000     0.908850000000     0.126200000000     0          
T        Si     0.000000000000     0.907000000000     0.000000000000     0          
T        Si     0.333050000000     0.756000000000     0.292800000000     0          
T        Si     0.000000000000     0.848650000000     0.268066666667     0          
T        Si     0.000000000000     0.908850000000     0.207133333333     0          
T        Si     0.077050000000     0.833050000000     0.292800000000     0          
T        Si     0.151350000000     0.500000000000     0.268066666667     0          
T        Si     0.091150000000     0.500000000000     0.207133333333     0          
T        Si     0.244000000000     0.577050000000     0.292800000000     0          
T        Si     0.151350000000     0.651350000000     0.268066666667     0          
T        Si     0.091150000000     0.591150000000     0.207133333333     0          
T        Si     0.166950000000     0.744000000000     0.292800000000     0          
T        Si     0.000000000000     0.651350000000     0.268066666667     0          
T        Si     0.000000000000     0.591150000000     0.207133333333     0          
T        Si     0.422950000000     0.666950000000     0.292800000000     0          
T        Si     0.348650000000     0.500000000000     0.268066666667     0          
T        Si     0.408850000000     0.500000000000     0.207133333333     0          
T        Si     0.256000000000     0.922950000000     0.292800000000     0          
T        Si     0.348650000000     0.848650000000     0.268066666667     0          
T        Si     0.408850000000     0.908850000000     0.207133333333     0          
T        Si     0.256000000000     0.833050000000     0.292800000000     0          
T        Si     0.422950000000     0.756000000000     0.292800000000     0          
T        Si     0.166950000000     0.922950000000     0.292800000000     0          
T        Si     0.244000000000     0.666950000000     0.292800000000     0          
T        Si     0.077050000000     0.744000000000     0.292800000000     0          
T        Si     0.333050000000     0.577050000000     0.292800000000     0          
T        Si     0.166950000000     0.744000000000     0.040533333333     0          
T        Si     0.422950000000     0.666950000000     0.040533333333     0          
T        Si     0.256000000000     0.922950000000     0.040533333333     0          
T        Si     0.333050000000     0.756000000000     0.040533333333     0          
T        Si     0.077050000000     0.833050000000     0.040533333333     0          
T        Si     0.244000000000     0.577050000000     0.040533333333     0          
T        Si     0.244000000000     0.666950000000     0.373866666667     0          
T        Si     0.151350000000     0.500000000000     0.398600000000     0          
T        Si     0.091150000000     0.500000000000     0.459533333333     0          
T        Si     0.093000000000     0.500000000000     0.333333333333     0          
T        Si     0.077050000000     0.744000000000     0.373866666667     0          
T        Si     0.151350000000     0.651350000000     0.398600000000     0          
T        Si     0.091150000000     0.591150000000     0.459533333333     0          
T        Si     0.093000000000     0.593000000000     0.333333333333     0          
T        Si     0.333050000000     0.577050000000     0.373866666667     0          
T        Si     0.000000000000     0.651350000000     0.398600000000     0          
T        Si     0.000000000000     0.591150000000     0.459533333333     0          
T        Si     0.000000000000     0.593000000000     0.333333333333     0          
T        Si     0.256000000000     0.833050000000     0.373866666667     0          
T        Si     0.348650000000     0.500000000000     0.398600000000     0          
T        Si     0.408850000000     0.500000000000     0.459533333333     0          
T        Si     0.407000000000     0.500000000000     0.333333333333     0          
T        Si     0.422950000000     0.756000000000     0.373866666667     0          
T        Si     0.348650000000     0.848650000000     0.398600000000     0          
T        Si     0.408850000000     0.908850000000     0.459533333333     0          
T        Si     0.407000000000     0.907000000000     0.333333333333     0          
T        Si     0.166950000000     0.922950000000     0.373866666667     0          
T        Si     0.000000000000     0.848650000000     0.398600000000     0          
T        Si     0.000000000000     0.908850000000     0.459533333333     0          
T        Si     0.000000000000     0.907000000000     0.333333333333     0          
T        Si     0.333050000000     0.756000000000     0.626133333333     0          
T        Si     0.000000000000     0.848650000000     0.601400000000     0          
T        Si     0.000000000000     0.908850000000     0.540466666667     0          
T        Si     0.077050000000     0.833050000000     0.626133333333     0          
T        Si     0.151350000000     0.500000000000     0.601400000000     0          
T        Si     0.091150000000     0.500000000000     0.540466666667     0          
T        Si     0.244000000000     0.577050000000     0.626133333333     0          
T        Si     0.151350000000     0.651350000000     0.601400000000     0          
T        Si     0.091150000000     0.591150000000     0.540466666667     0          
T        Si     0.166950000000     0.744000000000     0.626133333333     0          
T        Si     0.000000000000     0.651350000000     0.601400000000     0          
T        Si     0.000000000000     0.591150000000     0.540466666667     0          
T        Si     0.422950000000     0.666950000000     0.626133333333     0          
T        Si     0.348650000000     0.500000000000     0.601400000000     0          
T        Si     0.408850000000     0.500000000000     0.540466666667     0          
T        Si     0.256000000000     0.922950000000     0.626133333333     0          
T        Si     0.348650000000     0.848650000000     0.601400000000     0          
T        Si     0.408850000000     0.908850000000     0.540466666667     0          
T        Si     0.256000000000     0.833050000000     0.626133333333     0          
T        Si     0.422950000000     0.756000000000     0.626133333333     0          
T        Si     0.166950000000     0.922950000000     0.626133333333     0          
T        Si     0.244000000000     0.666950000000     0.626133333333     0          
T        Si     0.077050000000     0.744000000000     0.626133333333     0          
T        Si     0.333050000000     0.577050000000     0.626133333333     0          
T        Si     0.166950000000     0.744000000000     0.373866666667     0          
T        Si     0.422950000000     0.666950000000     0.373866666667     0          
T        Si     0.256000000000     0.922950000000     0.373866666667     0          
T        Si     0.333050000000     0.756000000000     0.373866666667     0          
T        Si     0.077050000000     0.833050000000     0.373866666667     0          
T        Si     0.244000000000     0.577050000000     0.373866666667     0          
T        Si     0.244000000000     0.666950000000     0.707200000000     0          
T        Si     0.151350000000     0.500000000000     0.731933333333     0          
T        Si     0.091150000000     0.500000000000     0.792866666667     0          
T        Si     0.093000000000     0.500000000000     0.666666666667     0          
T        Si     0.077050000000     0.744000000000     0.707200000000     0          
T        Si     0.151350000000     0.651350000000     0.731933333333     0          
T        Si     0.091150000000     0.591150000000     0.792866666667     0          
T        Si     0.093000000000     0.593000000000     0.666666666667     0          
T        Si     0.333050000000     0.577050000000     0.707200000000     0          
T        Si     0.000000000000     0.651350000000     0.731933333333     0          
T        Si     0.000000000000     0.591150000000     0.792866666667     0          
T        Si     0.000000000000     0.593000000000     0.666666666667     0          
T        Si     0.256000000000     0.833050000000     0.707200000000     0          
T        Si     0.348650000000     0.500000000000     0.731933333333     0          
T        Si     0.408850000000     0.500000000000     0.792866666667     0          
T        Si     0.407000000000     0.500000000000     0.666666666667     0          
T        Si     0.422950000000     0.756000000000     0.707200000000     0          
T        Si     0.348650000000     0.848650000000     0.731933333333     0          
T        Si     0.408850000000     0.908850000000     0.792866666667     0          
T        Si     0.407000000000     0.907000000000     0.666666666667     0          
T        Si     0.166950000000     0.922950000000     0.707200000000     0          
T        Si     0.000000000000     0.848650000000     0.731933333333     0          
T        Si     0.000000000000     0.908850000000     0.792866666667     0          
T        Si     0.000000000000     0.907000000000     0.666666666667     0          
T        Si     0.333050000000     0.756000000000     0.959466666667     0          
T        Si     0.000000000000     0.848650000000     0.934733333333     0          
T        Si     0.000000000000     0.908850000000     0.873800000000     0          
T        Si     0.077050000000     0.833050000000     0.959466666667     0          
T        Si     0.151350000000     0.500000000000     0.934733333333     0          
T        Si     0.091150000000     0.500000000000     0.873800000000     0          
T        Si     0.244000000000     0.577050000000     0.959466666667     0          
T        Si     0.151350000000     0.651350000000     0.934733333333     0          
T        Si     0.091150000000     0.591150000000     0.873800000000     0          
T        Si     0.166950000000     0.744000000000     0.959466666667     0          
T        Si     0.000000000000     0.651350000000     0.934733333333     0          
T        Si     0.000000000000     0.591150000000     0.873800000000     0          
T        Si     0.422950000000     0.666950000000     0.959466666667     0          
T        Si     0.348650000000     0.500000000000     0.934733333333     0          
T        Si     0.408850000000     0.500000000000     0.873800000000     0          
T        Si     0.256000000000     0.922950000000     0.959466666667     0          
T        Si     0.348650000000     0.848650000000     0.934733333333     0          
T        Si     0.408850000000     0.908850000000     0.873800000000     0          
T        Si     0.256000000000     0.833050000000     0.959466666667     0          
T        Si     0.422950000000     0.756000000000     0.959466666667     0          
T        Si     0.166950000000     0.922950000000     0.959466666667     0          
T        Si     0.244000000000     0.666950000000     0.959466666667     0          
T        Si     0.077050000000     0.744000000000     0.959466666667     0          
T        Si     0.333050000000     0.577050000000     0.959466666667     0          
T        Si     0.166950000000     0.744000000000     0.707200000000     0          
T        Si     0.422950000000     0.666950000000     0.707200000000     0          
T        Si     0.256000000000     0.922950000000     0.707200000000     0          
T        Si     0.333050000000     0.756000000000     0.707200000000     0          
T        Si     0.077050000000     0.833050000000     0.707200000000     0          
T        Si     0.244000000000     0.577050000000     0.707200000000     0          
T        Si     0.744000000000     0.166950000000     0.040533333333     0          
T        Si     0.651350000000     0.000000000000     0.065266666667     0          
T        Si     0.591150000000     0.000000000000     0.126200000000     0          
T        Si     0.593000000000     0.000000000000     0.000000000000     0          
T        Si     0.577050000000     0.244000000000     0.040533333333     0          
T        Si     0.651350000000     0.151350000000     0.065266666667     0          
T        Si     0.591150000000     0.091150000000     0.126200000000     0          
T        Si     0.593000000000     0.093000000000     0.000000000000     0          
T        Si     0.833050000000     0.077050000000     0.040533333333     0          
T        Si     0.500000000000     0.151350000000     0.065266666667     0          
T        Si     0.500000000000     0.091150000000     0.126200000000     0          
T        Si     0.500000000000     0.093000000000     0.000000000000     0          
T        Si     0.756000000000     0.333050000000     0.040533333333     0          
T        Si     0.848650000000     0.000000000000     0.065266666667     0          
T        Si     0.908850000000     0.000000000000     0.126200000000     0          
T        Si     0.907000000000     0.000000000000     0.000000000000     0          
T        Si     0.922950000000     0.256000000000     0.040533333333     0          
T        Si     0.848650000000     0.348650000000     0.065266666667     0          
T        Si     0.908850000000     0.408850000000     0.126200000000     0          
T        Si     0.907000000000     0.407000000000     0.000000000000     0          
T        Si     0.666950000000     0.422950000000     0.040533333333     0          
T        Si     0.500000000000     0.348650000000     0.065266666667     0          
T        Si     0.500000000000     0.408850000000     0.126200000000     0          
T        Si     0.500000000000     0.407000000000     0.000000000000     0          
T        Si     0.833050000000     0.256000000000     0.292800000000     0          
T        Si     0.500000000000     0.348650000000     0.268066666667     0          
T        Si     0.500000000000     0.408850000000     0.207133333333     0          
T        Si     0.577050000000     0.333050000000     0.292800000000     0          
T        Si     0.651350000000     0.000000000000     0.268066666667     0          
T        Si     0.591150000000     0.000000000000     0.207133333333     0          
T        Si     0.744000000000     0.077050000000     0.292800000000     0          
T        Si     0.651350000000     0.151350000000     0.268066666667     0          
T        Si     0.591150000000     0.091150000000     0.207133333333     0          
T        Si     0.666950000000     0.244000000000     0.292800000000     0          
T        Si     0.500000000000     0.151350000000     0.268066666667     0          
T        Si     0.500000000000     0.091150000000     0.207133333333     0          
T        Si     0.922950000000     0.166950000000     0.292800000000     0          
T        Si     0.848650000000     0.000000000000     0.268066666667     0          
T        Si     0.908850000000     0.000000000000     0.207133333333     0          
T        Si     0.756000000000     0.422950000000     0.292800000000     0          
T        Si     0.848650000000     0.348650000000     0.268066666667     0          
T        Si     0.908850000000     0.408850000000     0.207133333333     0          
T        Si     0.756000000000     0.333050000000     0.292800000000     0          
T        Si     0.922950000000     0.256000000000     0.292800000000     0          
T        Si     0.666950000000     0.422950000000     0.292800000000     0          
T        Si     0.744000000000     0.166950000000     0.292800000000     0          
T        Si     0.577050000000     0.244000000000     0.292800000000     0          
T        Si     0.833050000000     0.077050000000     0.292800000000     0          
T        Si     0.666950000000     0.244000000000     0.040533333333     0          
T        Si     0.922950000000     0.166950000000     0.040533333333     0          
T        Si     0.756000000000     0.422950000000     0.040533333333     0          
T        Si     0.833050000000     0.256000000000     0.040533333333     0          
T        Si     0.577050000000     0.333050000000     0.040533333333     0          
T        Si     0.744000000000     0.077050000000     0.040533333333     0          
T        Si     0.744000000000     0.166950000000     0.373866666667     0          
T        Si     0.651350000000     0.000000000000     0.398600000000     0          
T        Si     0.591150000000     0.000000000000     0.459533333333     0          
T        Si     0.593000000000     0.000000000000     0.333333333333     0          
T        Si     0.577050000000     0.244000000000     0.373866666667     0          
T        Si     0.651350000000     0.151350000000     0.398600000000     0          
T        Si     0.591150000000     0.091150000000     0.459533333333     0          
T        Si     0.593000000000     0.093000000000     0.333333333333     0          
T        Si     0.833050000000     0.077050000000     0.373866666667     0          
T        Si     0.500000000000     0.151350000000     0.398600000000     0          
T        Si     0.500000000000     0.091150000000     0.459533333333     0          
T        Si     0.500000000000     0.093000000000     0.333333333333     0          
T        Si     0.756000000000     0.333050000000     0.373866666667     0          
T        Si     0.848650000000     0.000000000000     0.398600000000     0          
T        Si     0.908850000000     0.000000000000     0.459533333333     0          
T        Si     0.907000000000     0.000000000000     0.333333333333     0          
T        Si     0.922950000000     0.256000000000     0.373866666667     0          
T        Si     0.848650000000     0.348650000000     0.398600000000     0          
T        Si     0.908850000000     0.408850000000     0.459533333333     0          
T        Si     0.907000000000     0.407000000000     0.333333333333     0          
T        Si     0.666950000000     0.422950000000     0.373866666667     0          
T        Si     0.500000000000     0.348650000000     0.398600000000     0          
T        Si     0.500000000000     0.408850000000     0.459533333333     0          
T        Si     0.500000000000     0.407000000000     0.333333333333     0          
T        Si     0.833050000000     0.256000000000     0.626133333333     0          
T        Si     0.500000000000     0.348650000000     0.601400000000     0          
T        Si     0.500000000000     0.408850000000     0.540466666667     0          
T        Si     0.577050000000     0.333050000000     0.626133333333     0          
T        Si     0.651350000000     0.000000000000     0.601400000000     0          
T        Si     0.591150000000     0.000000000000     0.540466666667     0          
T        Si     0.744000000000     0.077050000000     0.626133333333     0          
T        Si     0.651350000000     0.151350000000     0.601400000000     0          
T        Si     0.591150000000     0.091150000000     0.540466666667     0          
T        Si     0.666950000000     0.244000000000     0.626133333333     0          
T        Si     0.500000000000     0.151350000000     0.601400000000     0          
T        Si     0.500000000000     0.091150000000     0.540466666667     0          
T        Si     0.922950000000     0.166950000000     0.626133333333     0          
T        Si     0.848650000000     0.000000000000     0.601400000000     0          
T        Si     0.908850000000     0.000000000000     0.540466666667     0          
T        Si     0.756000000000     0.422950000000     0.626133333333     0          
T        Si     0.848650000000     0.348650000000     0.601400000000     0          
T        Si     0.908850000000     0.408850000000     0.540466666667     0          
T        Si     0.756000000000     0.333050000000     0.626133333333     0          
T        Si     0.922950000000     0.256000000000     0.626133333333     0          
T        Si     0.666950000000     0.422950000000     0.626133333333     0          
T        Si     0.744000000000     0.166950000000     0.626133333333     0          
T        Si     0.577050000000     0.244000000000     0.626133333333     0          
T        Si     0.833050000000     0.077050000000     0.626133333333     0          
T        Si     0.666950000000     0.244000000000     0.373866666667     0          
T        Si     0.922950000000     0.166950000000     0.373866666667     0          
T        Si     0.756000000000     0.422950000000     0.373866666667     0          
T        Si     0.833050000000     0.256000000000     0.373866666667     0          
T        Si     0.577050000000     0.333050000000     0.373866666667     0          
T        Si     0.744000000000     0.077050000000     0.373866666667     0          
T        Si     0.744000000000     0.166950000000     0.707200000000     0          
T        Si     0.651350000000     0.000000000000     0.731933333333     0          
T        Si     0.591150000000     0.000000000000     0.792866666667     0          
T        Si     0.593000000000     0.000000000000     0.666666666667     0          
T        Si     0.577050000000     0.244000000000     0.707200000000     0          
T        Si     0.651350000000     0.151350000000     0.731933333333     0          
T        Si     0.591150000000     0.091150000000     0.792866666667     0          
T        Si     0.593000000000     0.093000000000     0.666666666667     0          
T        Si     0.833050000000     0.077050000000     0.707200000000     0          
T        Si     0.500000000000     0.151350000000     0.731933333333     0          
T        Si     0.500000000000     0.091150000000     0.792866666667     0          
T        Si     0.500000000000     0.093000000000     0.666666666667     0          
T        Si     0.756000000000     0.333050000000     0.707200000000     0          
T        Si     0.848650000000     0.000000000000     0.731933333333     0          
T        Si     0.908850000000     0.000000000000     0.792866666667     0          
T        Si     0.907000000000     0.000000000000     0.666666666667     0          
T        Si     0.922950000000     0.256000000000     0.707200000000     0          
T        Si     0.848650000000     0.348650000000     0.731933333333     0          
T        Si     0.908850000000     0.408850000000     0.792866666667     0          
T        Si     0.907000000000     0.407000000000     0.666666666667     0          
T        Si     0.666950000000     0.422950000000     0.707200000000     0          
T        Si     0.500000000000     0.348650000000     0.731933333333     0          
T        Si     0.500000000000     0.408850000000     0.792866666667     0          
T        Si     0.500000000000     0.407000000000     0.666666666667     0          
T        Si     0.833050000000     0.256000000000     0.959466666667     0          
T        Si     0.500000000000     0.348650000000     0.934733333333     0          
T        Si     0.500000000000     0.408850000000     0.873800000000     0          
T        Si     0.577050000000     0.333050000000     0.959466666667     0          
T        Si     0.651350000000     0.000000000000     0.934733333333     0          
T        Si     0.591150000000     0.000000000000     0.873800000000     0          
T        Si     0.744000000000     0.077050000000     0.959466666667     0          
T        Si     0.651350000000     0.151350000000     0.934733333333     0          
T        Si     0.591150000000     0.091150000000     0.873800000000     0          
T        Si     0.666950000000     0.244000000000     0.959466666667     0          
T        Si     0.500000000000     0.151350000000     0.934733333333     0          
T        Si     0.500000000000     0.091150000000     0.873800000000     0          
T        Si     0.922950000000     0.166950000000     0.959466666667     0          
T        Si     0.848650000000     0.000000000000     0.934733333333     0          
T        Si     0.908850000000     0.000000000000     0.873800000000     0          
T        Si     0.756000000000     0.422950000000     0.959466666667     0          
T        Si     0.848650000000     0.348650000000     0.934733333333     0          
T        Si     0.908850000000     0.408850000000     0.873800000000     0          
T        Si     0.756000000000     0.333050000000     0.959466666667     0          
T        Si     0.922950000000     0.256000000000     0.959466666667     0          
T        Si     0.666950000000     0.422950000000     0.959466666667     0          
T        Si     0.744000000000     0.166950000000     0.959466666667     0          
T        Si     0.577050000000     0.244000000000     0.959466666667     0          
T        Si     0.833050000000     0.077050000000     0.959466666667     0          
T        Si     0.666950000000     0.244000000000     0.707200000000     0          
T        Si     0.922950000000     0.166950000000     0.707200000000     0          
T        Si     0.756000000000     0.422950000000     0.707200000000     0          
T        Si     0.833050000000     0.256000000000     0.707200000000     0          
T        Si     0.577050000000     0.333050000000     0.707200000000     0          
T        Si     0.744000000000     0.077050000000     0.707200000000     0          
T        Si     0.744000000000     0.666950000000     0.040533333333     0          
T        Si     0.651350000000     0.500000000000     0.065266666667     0          
T        Si     0.591150000000     0.500000000000     0.126200000000     0          
T        Si     0.593000000000     0.500000000000     0.000000000000     0          
T        Si     0.577050000000     0.744000000000     0.040533333333     0          
T        Si     0.651350000000     0.651350000000     0.065266666667     0          
T        Si     0.591150000000     0.591150000000     0.126200000000     0          
T        Si     0.593000000000     0.593000000000     0.000000000000     0          
T        Si     0.833050000000     0.577050000000     0.040533333333     0          
T        Si     0.500000000000     0.651350000000     0.065266666667     0          
T        Si     0.500000000000     0.591150000000     0.126200000000     0          
T        Si     0.500000000000     0.593000000000     0.000000000000     0          
T        Si     0.756000000000     0.833050000000     0.040533333333     0          
T        Si     0.848650000000     0.500000000000     0.065266666667     0          
T        Si     0.908850000000     0.500000000000     0.126200000000     0          
T        Si     0.907000000000     0.500000000000     0.000000000000     0          
T        Si     0.922950000000     0.756000000000     0.040533333333     0          
T        Si     0.848650000000     0.848650000000     0.065266666667     0          
T        Si     0.908850000000     0.908850000000     0.126200000000     0          
T        Si     0.907000000000     0.907000000000     0.000000000000     0          
T        Si     0.666950000000     0.922950000000     0.040533333333     0          
T        Si     0.500000000000     0.848650000000     0.065266666667     0          
T        Si     0.500000000000     0.908850000000     0.126200000000     0          
T        Si     0.500000000000     0.907000000000     0.000000000000     0          
T        Si     0.833050000000     0.756000000000     0.292800000000     0          
T        Si     0.500000000000     0.848650000000     0.268066666667     0          
T        Si     0.500000000000     0.908850000000     0.207133333333     0          
T        Si     0.577050000000     0.833050000000     0.292800000000     0          
T        Si     0.651350000000     0.500000000000     0.268066666667     0          
T        Si     0.591150000000     0.500000000000     0.207133333333     0          
T        Si     0.744000000000     0.577050000000     0.292800000000     0          
T        Si     0.651350000000     0.651350000000     0.268066666667     0          
T        Si     0.591150000000     0.591150000000     0.207133333333     0          
T        Si     0.666950000000     0.744000000000     0.292800000000     0          
T        Si     0.500000000000     0.651350000000     0.268066666667     0          
T        Si     0.500000000000     0.591150000000     0.207133333333     0          
T        Si     0.922950000000     0.666950000000     0.292800000000     0          
T        Si     0.848650000000     0.500000000000     0.268066666667     0          
T        Si     0.908850000000     0.500000000000     0.207133333333     0          
T        Si     0.756000000000     0.922950000000     0.292800000000     0          
T        Si     0.848650000000     0.848650000000     0.268066666667     0          
T        Si     0.908850000000     0.908850000000     0.207133333333     0          
T        Si     0.756000000000     0.833050000000     0.292800000000     0          
T        Si     0.922950000000     0.756000000000     0.292800000000     0          
T        Si     0.666950000000     0.922950000000     0.292800000000     0          
T        Si     0.744000000000     0.666950000000     0.292800000000     0          
T        Si     0.577050000000     0.744000000000     0.292800000000     0          
T        Si     0.833050000000     0.577050000000     0.292800000000     0          
T        Si     0.666950000000     0.744000000000     0.040533333333     0          
T        Si     0.922950000000     0.666950000000     0.040533333333     0          
T        Si     0.756000000000     0.922950000000     0.040533333333     0          
T        Si     0.833050000000     0.756000000000     0.040533333333     0          
T        Si     0.577050000000     0.833050000000     0.040533333333     0          
T        Si     0.744000000000     0.577050000000     0.040533333333     0          
T        Si     0.744000000000     0.666950000000     0.373866666667     0          
T        Si     0.651350000000     0.500000000000     0.398600000000     0          
T        Si     0.591150000000     0.500000000000     0.459533333333     0          
T        Si     0.593000000000     0.500000000000     0.333333333333     0          
T        Si     0.577050000000     0.744000000000     0.373866666667     0          
T        Si     0.651350000000     0.651350000000     0.398600000000     0          
T        Si     0.591150000000     0.591150000000     0.459533333333     0          
T        Si     0.593000000000     0.593000000000     0.333333333333     0          
T        Si     0.833050000000     0.577050000000     0.373866666667     0          
T        Si     0.500000000000     0.651350000000     0.398600000000     0          
T        Si     0.500000000000     0.591150000000     0.459533333333     0          
T        Si     0.500000000000     0.593000000000     0.333333333333     0          
T        Si     0.756000000000     0.833050000000     0.373866666667     0          
T        Si     0.848650000000     0.500000000000     0.398600000000     0          
T        Si     0.908850000000     0.500000000000     0.459533333333     0          
T        Si     0.907000000000     0.500000000000     0.333333333333     0          
T        Si     0.922950000000     0.756000000000     0.373866666667     0          
T        Si     0.848650000000     0.848650000000     0.398600000000     0          
T        Si     0.908850000000     0.908850000000     0.459533333333     0          
T        Si     0.907000000000     0.907000000000     0.333333333333     0          
T        Si     0.666950000000     0.922950000000     0.373866666667     0          
T        Si     0.500000000000     0.848650000000     0.398600000000     0          
T        Si     0.500000000000     0.908850000000     0.459533333333     0          
T        Si     0.500000000000     0.907000000000     0.333333333333     0          
T        Si     0.833050000000     0.756000000000     0.626133333333     0          
T        Si     0.500000000000     0.848650000000     0.601400000000     0          
T        Si     0.500000000000     0.908850000000     0.540466666667     0          
T        Si     0.577050000000     0.833050000000     0.626133333333     0          
T        Si     0.651350000000     0.500000000000     0.601400000000     0          
T        Si     0.591150000000     0.500000000000     0.540466666667     0          
T        Si     0.744000000000     0.577050000000     0.626133333333     0          
T        Si     0.651350000000     0.651350000000     0.601400000000     0          
T        Si     0.591150000000     0.591150000000     0.540466666667     0          
T        Si     0.666950000000     0.744000000000     0.626133333333     0          
T        Si     0.500000000000     0.651350000000     0.601400000000     0          
T        Si     0.500000000000     0.591150000000     0.540466666667     0          
T        Si     0.922950000000     0.666950000000     0.626133333333     0          
T        Si     0.848650000000     0.500000000000     0.601400000000     0          
T        Si     0.908850000000     0.500000000000     0.540466666667     0          
T        Si     0.756000000000     0.922950000000     0.626133333333     0          
T        Si     0.848650000000     0.848650000000     0.601400000000     0          
T        Si     0.908850000000     0.908850000000     0.540466666667     0          
T        Si     0.756000000000     0.833050000000     0.626133333333     0          
T        Si     0.922950000000     0.756000000000     0.626133333333     0          
T        Si     0.666950000000     0.922950000000     0.626133333333     0          
T        Si     0.744000000000     0.666950000000     0.626133333333     0          
T        Si     0.577050000000     0.744000000000     0.626133333333     0          
T        Si     0.833050000000     0.577050000000     0.626133333333     0          
T        Si     0.666950000000     0.744000000000     0.373866666667     0          
T        Si     0.922950000000     0.666950000000     0.373866666667     0          
T        Si     0.756000000000     0.922950000000     0.373866666667     0          
T        Si     0.833050000000     0.756000000000     0.373866666667     0          
T        Si     0.577050000000     0.833050000000     0.373866666667     0          
T        Si     0.744000000000     0.577050000000     0.373866666667     0          
T        Si     0.744000000000     0.666950000000     0.707200000000     0          
T        Si     0.651350000000     0.500000000000     0.731933333333     0          
T        Si     0.591150000000     0.500000000000     0.792866666667     0          
T        Si     0.593000000000     0.500000000000     0.666666666667     0          
T        Si     0.577050000000     0.744000000000     0.707200000000     0          
T        Si     0.651350000000     0.651350000000     0.731933333333     0          
T        Si     0.591150000000     0.591150000000     0.792866666667     0          
T        Si     0.593000000000     0.593000000000     0.666666666667     0          
T        Si     0.833050000000     0.577050000000     0.707200000000     0          
T        Si     0.500000000000     0.651350000000     0.731933333333     0          
T        Si     0.500000000000     0.591150000000     0.792866666667     0          
T        Si     0.500000000000     0.593000000000     0.666666666667     0          
T        Si     0.756000000000     0.833050000000     0.707200000000     0          
T        Si     0.848650000000     0.500000000000     0.731933333333     0          
T        Si     0.908850000000     0.500000000000     0.792866666667     0          
T        Si     0.907000000000     0.500000000000     0.666666666667     0          
T        Si     0.922950000000     0.756000000000     0.707200000000     0          
T        Si     0.848650000000     0.848650000000     0.731933333333     0          
T        Si     0.908850000000     0.908850000000     0.792866666667     0          
T        Si     0.907000000000     0.907000000000     0.666666666667     0          
T        Si     0.666950000000     0.922950000000     0.707200000000     0          
T        Si     0.500000000000     0.848650000000     0.731933333333     0          
T        Si     0.500000000000     0.908850000000     0.792866666667     0          
T        Si     0.500000000000     0.907000000000     0.666666666667     0          
T        Si     0.833050000000     0.756000000000     0.959466666667     0          
T        Si     0.500000000000     0.848650000000     0.934733333333     0          
T        Si     0.500000000000     0.908850000000     0.873800000000     0          
T        Si     0.577050000000     0.833050000000     0.959466666667     0          
T        Si     0.651350000000     0.500000000000     0.934733333333     0          
T        Si     0.591150000000     0.500000000000     0.873800000000     0          
T        Si     0.744000000000     0.577050000000     0.959466666667     0          
T        Si     0.651350000000     0.651350000000     0.934733333333     0          
T        Si     0.591150000000     0.591150000000     0.873800000000     0          
T        Si     0.666950000000     0.744000000000     0.959466666667     0          
T        Si     0.500000000000     0.651350000000     0.934733333333     0          
T        Si     0.500000000000     0.591150000000     0.873800000000     0          
T        Si     0.922950000000     0.666950000000     0.959466666667     0          
T        Si     0.848650000000     0.500000000000     0.934733333333     0          
T        Si     0.908850000000     0.500000000000     0.873800000000     0          
T        Si     0.756000000000     0.922950000000     0.959466666667     0          
T        Si     0.848650000000     0.848650000000     0.934733333333     0          
T        Si     0.908850000000     0.908850000000     0.873800000000     0          
T        Si     0.756000000000     0.833050000000     0.959466666667     0          
T        Si     0.922950000000     0.756000000000     0.959466666667     0          
T        Si     0.666950000000     0.922950000000     0.959466666667     0          
T        Si     0.744000000000     0.666950000000     0.959466666667     0          
T        Si     0.577050000000     0.744000000000     0.959466666667     0          
T        Si     0.833050000000     0.577050000000     0.959466666667     0          
T        Si     0.666950000000     0.744000000000     0.707200000000     0          
T        Si     0.922950000000     0.666950000000     0.707200000000     0          
T        Si     0.756000000000     0.922950000000     0.707200000000     0          
T        Si     0.833050000000     0.756000000000     0.707200000000     0          
T        Si     0.577050000000     0.833050000000     0.707200000000     0          
T        Si     0.744000000000     0.577050000000     0.707200000000     0          
O        O      0.256550000000     0.128300000000     0.046466666667     0          
O        O      0.200200000000     0.156050000000     0.063033333333     0          
O        O      0.233350000000     0.169300000000     0.000000000000     0          
O        O      0.285450000000     0.214550000000     0.052500000000     0          
O        O      0.129700000000     0.000000000000     0.102466666667     0          
O        O      0.119850000000     0.000000000000     0.034300000000     0          
O        O      0.044000000000     0.456000000000     0.117333333333     0          
O        O      0.103450000000     0.000000000000     0.166666666667     0          
O        O      0.044000000000     0.456000000000     0.000000000000     0          
O        O      0.128250000000     0.256550000000     0.046466666667     0          
O        O      0.044150000000     0.200200000000     0.063033333333     0          
O        O      0.064050000000     0.233350000000     0.000000000000     0          
O        O      0.070900000000     0.285450000000     0.052500000000     0          
O        O      0.129700000000     0.129700000000     0.102466666667     0          
O        O      0.119850000000     0.119850000000     0.034300000000     0          
O        O      0.088000000000     0.044000000000     0.117333333333     0          
O        O      0.103450000000     0.103450000000     0.166666666667     0          
O        O      0.088000000000     0.044000000000     0.000000000000     0          
O        O      0.371700000000     0.128250000000     0.046466666667     0          
O        O      0.343950000000     0.044150000000     0.063033333333     0          
O        O      0.330700000000     0.064050000000     0.000000000000     0          
O        O      0.285450000000     0.070900000000     0.052500000000     0          
O        O      0.000000000000     0.129700000000     0.102466666667     0          
O        O      0.000000000000     0.119850000000     0.034300000000     0          
O        O      0.044000000000     0.088000000000     0.117333333333     0          
O        O      0.000000000000     0.103450000000     0.166666666667     0          
O        O      0.044000000000     0.088000000000     0.000000000000     0          
O        O      0.243450000000     0.371700000000     0.046466666667     0          
O        O      0.299800000000     0.343950000000     0.063033333333     0          
O        O      0.266650000000     0.330700000000     0.000000000000     0          
O        O      0.214550000000     0.285450000000     0.052500000000     0          
O        O      0.370300000000     0.000000000000     0.102466666667     0          
O        O      0.380150000000     0.000000000000     0.034300000000     0          
O        O      0.456000000000     0.044000000000     0.117333333333     0          
O        O      0.396550000000     0.000000000000     0.166666666667     0          
O        O      0.456000000000     0.044000000000     0.000000000000     0          
O        O      0.371750000000     0.243450000000     0.046466666667     0          
O        O      0.455850000000     0.299800000000     0.063033333333     0          
O        O      0.435950000000     0.266650000000     0.000000000000     0          
O        O      0.429100000000     0.214550000000     0.052500000000     0          
O        O      0.370300000000     0.370300000000     0.102466666667     0          
O        O      0.380150000000     0.380150000000     0.034300000000     0          
O        O      0.412000000000     0.456000000000     0.117333333333     0          
O        O      0.396550000000     0.396550000000     0.166666666667     0          
O        O      0.412000000000     0.456000000000     0.000000000000     0          
O        O      0.128300000000     0.371750000000     0.046466666667     0          
O        O      0.156050000000     0.455850000000     0.063033333333     0          
O        O      0.169300000000     0.435950000000     0.000000000000     0          
O        O      0.214550000000     0.429100000000     0.052500000000     0          
O        O      0.000000000000     0.370300000000     0.102466666667     0          
O        O      0.000000000000     0.380150000000     0.034300000000     0          
O        O      0.456000000000     0.412000000000     0.117333333333     0          
O        O      0.000000000000     0.396550000000     0.166666666667     0          
O        O      0.456000000000     0.412000000000     0.000000000000     0          
O        O      0.371700000000     0.243450000000     0.286866666667     0          
O        O      0.343950000000     0.299800000000     0.270300000000     0          
O        O      0.330700000000     0.266650000000     0.000000000000     0          
O        O      0.285450000000     0.214550000000     0.280833333333     0          
O        O      0.000000000000     0.370300000000     0.230866666667     0          
O        O      0.000000000000     0.380150000000     0.299033333333     0          
O        O      0.044000000000     0.456000000000     0.216000000000     0          
O        O      0.128250000000     0.371700000000     0.286866666667     0          
O        O      0.044150000000     0.343950000000     0.270300000000     0          
O        O      0.064050000000     0.330700000000     0.000000000000     0          
O        O      0.070900000000     0.285450000000     0.280833333333     0          
O        O      0.129700000000     0.000000000000     0.230866666667     0          
O        O      0.119850000000     0.000000000000     0.299033333333     0          
O        O      0.088000000000     0.044000000000     0.216000000000     0          
O        O      0.256550000000     0.128250000000     0.286866666667     0          
O        O      0.200200000000     0.044150000000     0.270300000000     0          
O        O      0.233350000000     0.064050000000     0.000000000000     0          
O        O      0.285450000000     0.070900000000     0.280833333333     0          
O        O      0.129700000000     0.129700000000     0.230866666667     0          
O        O      0.119850000000     0.119850000000     0.299033333333     0          
O        O      0.044000000000     0.088000000000     0.216000000000     0          
O        O      0.128300000000     0.256550000000     0.286866666667     0          
O        O      0.156050000000     0.200200000000     0.270300000000     0          
O        O      0.169300000000     0.233350000000     0.000000000000     0          
O        O      0.214550000000     0.285450000000     0.280833333333     0          
O        O      0.000000000000     0.129700000000     0.230866666667     0          
O        O      0.000000000000     0.119850000000     0.299033333333     0          
O        O      0.456000000000     0.044000000000     0.216000000000     0          
O        O      0.371750000000     0.128300000000     0.286866666667     0          
O        O      0.455850000000     0.156050000000     0.270300000000     0          
O        O      0.435950000000     0.169300000000     0.000000000000     0          
O        O      0.429100000000     0.214550000000     0.280833333333     0          
O        O      0.370300000000     0.000000000000     0.230866666667     0          
O        O      0.380150000000     0.000000000000     0.299033333333     0          
O        O      0.412000000000     0.456000000000     0.216000000000     0          
O        O      0.243450000000     0.371750000000     0.286866666667     0          
O        O      0.299800000000     0.455850000000     0.270300000000     0          
O        O      0.266650000000     0.435950000000     0.000000000000     0          
O        O      0.214550000000     0.429100000000     0.280833333333     0          
O        O      0.370300000000     0.370300000000     0.230866666667     0          
O        O      0.380150000000     0.380150000000     0.299033333333     0          
O        O      0.456000000000     0.412000000000     0.216000000000     0          
O        O      0.299800000000     0.343950000000     0.270300000000     0          
O        O      0.455850000000     0.299800000000     0.270300000000     0          
O        O      0.156050000000     0.455850000000     0.270300000000     0          
O        O      0.200200000000     0.156050000000     0.270300000000     0          
O        O      0.044150000000     0.200200000000     0.270300000000     0          
O        O      0.343950000000     0.044150000000     0.270300000000     0          
O        O      0.156050000000     0.200200000000     0.063033333333     0          
O        O      0.455850000000     0.156050000000     0.063033333333     0          
O        O      0.299800000000     0.455850000000     0.063033333333     0          
O        O      0.343950000000     0.299800000000     0.063033333333     0          
O        O      0.044150000000     0.343950000000     0.063033333333     0          
O        O      0.200200000000     0.044150000000     0.063033333333     0          
O        O      0.256550000000     0.128300000000     0.379800000000     0          
O        O      0.200200000000     0.156050000000     0.396366666667     0          
O        O      0.233350000000     0.169300000000     0.333333333333     0          
O        O      0.285450000000     0.214550000000     0.385833333333     0          
O        O      0.129700000000     0.000000000000     0.435800000000     0          
O        O      0.119850000000     0.000000000000     0.367633333333     0          
O        O      0.044000000000     0.456000000000     0.450666666667     0          
O        O      0.103450000000     0.000000000000     0.500000000000     0          
O        O      0.044000000000     0.456000000000     0.333333333333     0          
O        O      0.128250000000     0.256550000000     0.379800000000     0          
O        O      0.044150000000     0.200200000000     0.396366666667     0          
O        O      0.064050000000     0.233350000000     0.333333333333     0          
O        O      0.070900000000     0.285450000000     0.385833333333     0          
O        O      0.129700000000     0.129700000000     0.435800000000     0          
O        O      0.119850000000     0.119850000000     0.367633333333     0          
O        O      0.088000000000     0.044000000000     0.450666666667     0          
O        O      0.103450000000     0.103450000000     0.500000000000     0          
O        O      0.088000000000     0.044000000000     0.333333333333     0          
O        O      0.371700000000     0.128250000000     0.379800000000     0          
O        O      0.343950000000     0.044150000000     0.396366666667     0          
O        O      0.330700000000     0.064050000000     0.333333333333     0          
O        O      0.285450000000     0.070900000000     0.385833333333     0          
O        O      0.000000000000     0.129700000000     0.435800000000     0          
O        O      0.000000000000     0.119850000000     0.367633333333     0          
O        O      0.044000000000     0.088000000000     0.450666666667     0          
O        O      0.000000000000     0.103450000000     0.500000000000     0          
O        O      0.044000000000     0.088000000000     0.333333333333     0          
O        O      0.243450000000     0.371700000000     0.379800000000     0          
O        O      0.299800000000     0.343950000000     0.396366666667     0          
O        O      0.266650000000     0.330700000000     0.333333333333     0          
O        O      0.214550000000     0.285450000000     0.385833333333     0          
O        O      0.370300000000     0.000000000000     0.435800000000     0          
O        O      0.380150000000     0.000000000000     0.367633333333     0          
O        O      0.456000000000     0.044000000000     0.450666666667     0          
O        O      0.396550000000     0.000000000000     0.500000000000     0          
O        O      0.456000000000     0.044000000000     0.333333333333     0          
O        O      0.371750000000     0.243450000000     0.379800000000     0          
O        O      0.455850000000     0.299800000000     0.396366666667     0          
O        O      0.435950000000     0.266650000000     0.333333333333     0          
O        O      0.429100000000     0.214550000000     0.385833333333     0          
O        O      0.370300000000     0.370300000000     0.435800000000     0          
O        O      0.380150000000     0.380150000000     0.367633333333     0          
O        O      0.412000000000     0.456000000000     0.450666666667     0          
O        O      0.396550000000     0.396550000000     0.500000000000     0          
O        O      0.412000000000     0.456000000000     0.333333333333     0          
O        O      0.128300000000     0.371750000000     0.379800000000     0          
O        O      0.156050000000     0.455850000000     0.396366666667     0          
O        O      0.169300000000     0.435950000000     0.333333333333     0          
O        O      0.214550000000     0.429100000000     0.385833333333     0          
O        O      0.000000000000     0.370300000000     0.435800000000     0          
O        O      0.000000000000     0.380150000000     0.367633333333     0          
O        O      0.456000000000     0.412000000000     0.450666666667     0          
O        O      0.000000000000     0.396550000000     0.500000000000     0          
O        O      0.456000000000     0.412000000000     0.333333333333     0          
O        O      0.371700000000     0.243450000000     0.620200000000     0          
O        O      0.343950000000     0.299800000000     0.603633333333     0          
O        O      0.330700000000     0.266650000000     0.333333333333     0          
O        O      0.285450000000     0.214550000000     0.614166666667     0          
O        O      0.000000000000     0.370300000000     0.564200000000     0          
O        O      0.000000000000     0.380150000000     0.632366666667     0          
O        O      0.044000000000     0.456000000000     0.549333333333     0          
O        O      0.128250000000     0.371700000000     0.620200000000     0          
O        O      0.044150000000     0.343950000000     0.603633333333     0          
O        O      0.064050000000     0.330700000000     0.333333333333     0          
O        O      0.070900000000     0.285450000000     0.614166666667     0          
O        O      0.129700000000     0.000000000000     0.564200000000     0          
O        O      0.119850000000     0.000000000000     0.632366666667     0          
O        O      0.088000000000     0.044000000000     0.549333333333     0          
O        O      0.256550000000     0.128250000000     0.620200000000     0          
O        O      0.200200000000     0.044150000000     0.603633333333     0          
O        O      0.233350000000     0.064050000000     0.333333333333     0          
O        O      0.285450000000     0.070900000000     0.614166666667     0          
O        O      0.129700000000     0.129700000000     0.564200000000     0          
O        O      0.119850000000     0.119850000000     0.632366666667     0          
O        O      0.044000000000     0.088000000000     0.549333333333     0          
O        O      0.128300000000     0.256550000000     0.620200000000     0          
O        O      0.156050000000     0.200200000000     0.603633333333     0          
O        O      0.169300000000     0.233350000000     0.333333333333     0          
O        O      0.214550000000     0.285450000000     0.614166666667     0          
O        O      0.000000000000     0.129700000000     0.564200000000     0          
O        O      0.000000000000     0.119850000000     0.632366666667     0          
O        O      0.456000000000     0.044000000000     0.549333333333     0          
O        O      0.371750000000     0.128300000000     0.620200000000     0          
O        O      0.455850000000     0.156050000000     0.603633333333     0          
O        O      0.435950000000     0.169300000000     0.333333333333     0          
O        O      0.429100000000     0.214550000000     0.614166666667     0          
O        O      0.370300000000     0.000000000000     0.564200000000     0          
O        O      0.380150000000     0.000000000000     0.632366666667     0          
O        O      0.412000000000     0.456000000000     0.549333333333     0          
O        O      0.243450000000     0.371750000000     0.620200000000     0          
O        O      0.299800000000     0.455850000000     0.603633333333     0          
O        O      0.266650000000     0.435950000000     0.333333333333     0          
O        O      0.214550000000     0.429100000000     0.614166666667     0          
O        O      0.370300000000     0.370300000000     0.564200000000     0          
O        O      0.380150000000     0.380150000000     0.632366666667     0          
O        O      0.456000000000     0.412000000000     0.549333333333     0          
O        O      0.299800000000     0.343950000000     0.603633333333     0          
O        O      0.455850000000     0.299800000000     0.603633333333     0          
O        O      0.156050000000     0.455850000000     0.603633333333     0          
O        O      0.200200000000     0.156050000000     0.603633333333     0          
O        O      0.044150000000     0.200200000000     0.603633333333     0          
O        O      0.343950000000     0.044150000000     0.603633333333     0          
O        O      0.156050000000     0.200200000000     0.396366666667     0          
O        O      0.455850000000     0.156050000000     0.396366666667     0          
O        O      0.299800000000     0.455850000000     0.396366666667     0          
O        O      0.343950000000     0.299800000000     0.396366666667     0          
O        O      0.044150000000     0.343950000000     0.396366666667     0          
O        O      0.200200000000     0.044150000000     0.396366666667     0          
O        O      0.256550000000     0.128300000000     0.713133333333     0          
O        O      0.200200000000     0.156050000000     0.729700000000     0          
O        O      0.233350000000     0.169300000000     0.666666666667     0          
O        O      0.285450000000     0.214550000000     0.719166666667     0          
O        O      0.129700000000     0.000000000000     0.769133333333     0          
O        O      0.119850000000     0.000000000000     0.700966666667     0          
O        O      0.044000000000     0.456000000000     0.784000000000     0          
O        O      0.103450000000     0.000000000000     0.833333333333     0          
O        O      0.044000000000     0.456000000000     0.666666666667     0          
O        O      0.128250000000     0.256550000000     0.713133333333     0          
O        O      0.044150000000     0.200200000000     0.729700000000     0          
O        O      0.064050000000     0.233350000000     0.666666666667     0          
O        O      0.070900000000     0.285450000000     0.719166666667     0          
O        O      0.129700000000     0.129700000000     0.769133333333     0          
O        O      0.119850000000     0.119850000000     0.700966666667     0          
O        O      0.088000000000     0.044000000000     0.784000000000     0          
O        O      0.103450000000     0.103450000000     0.833333333333     0          
O        O      0.088000000000     0.044000000000     0.666666666667     0          
O        O      0.371700000000     0.128250000000     0.713133333333     0          
O        O      0.343950000000     0.044150000000     0.729700000000     0          
O        O      0.330700000000     0.064050000000     0.666666666667     0          
O        O      0.285450000000     0.070900000000     0.719166666667     0          
O        O      0.000000000000     0.129700000000     0.769133333333     0          
O        O      0.000000000000     0.119850000000     0.700966666667     0          
O        O      0.044000000000     0.088000000000     0.784000000000     0          
O        O      0.000000000000     0.103450000000     0.833333333333     0          
O        O      0.044000000000     0.088000000000     0.666666666667     0          
O        O      0.243450000000     0.371700000000     0.713133333333     0          
O        O      0.299800000000     0.343950000000     0.729700000000     0          
O        O      0.266650000000     0.330700000000     0.666666666667     0          
O        O      0.214550000000     0.285450000000     0.719166666667     0          
O        O      0.370300000000     0.000000000000     0.769133333333     0          
O        O      0.380150000000     0.000000000000     0.700966666667     0          
O        O      0.456000000000     0.044000000000     0.784000000000     0          
O        O      0.396550000000     0.000000000000     0.833333333333     0          
O        O      0.456000000000     0.044000000000     0.666666666667     0          
O        O      0.371750000000     0.243450000000     0.713133333333     0          
O        O      0.455850000000     0.299800000000     0.729700000000     0          
O        O      0.435950000000     0.266650000000     0.666666666667     0          
O        O      0.429100000000     0.214550000000     0.719166666667     0          
O        O      0.370300000000     0.370300000000     0.769133333333     0          
O        O      0.380150000000     0.380150000000     0.700966666667     0          
O        O      0.412000000000     0.456000000000     0.784000000000     0          
O        O      0.396550000000     0.396550000000     0.833333333333     0          
O        O      0.412000000000     0.456000000000     0.666666666667     0          
O        O      0.128300000000     0.371750000000     0.713133333333     0          
O        O      0.156050000000     0.455850000000     0.729700000000     0          
O        O      0.169300000000     0.435950000000     0.666666666667     0          
O        O      0.214550000000     0.429100000000     0.719166666667     0          
O        O      0.000000000000     0.370300000000     0.769133333333     0          
O        O      0.000000000000     0.380150000000     0.700966666667     0          
O        O      0.456000000000     0.412000000000     0.784000000000     0          
O        O      0.000000000000     0.396550000000     0.833333333333     0          
O        O      0.456000000000     0.412000000000     0.666666666667     0          
O        O      0.371700000000     0.243450000000     0.953533333333     0          
O        O      0.343950000000     0.299800000000     0.936966666667     0          
O        O      0.330700000000     0.266650000000     0.666666666667     0          
O        O      0.285450000000     0.214550000000     0.947500000000     0          
O        O      0.000000000000     0.370300000000     0.897533333333     0          
O        O      0.000000000000     0.380150000000     0.965700000000     0          
O        O      0.044000000000     0.456000000000     0.882666666667     0          
O        O      0.128250000000     0.371700000000     0.953533333333     0          
O        O      0.044150000000     0.343950000000     0.936966666667     0          
O        O      0.064050000000     0.330700000000     0.666666666667     0          
O        O      0.070900000000     0.285450000000     0.947500000000     0          
O        O      0.129700000000     0.000000000000     0.897533333333     0          
O        O      0.119850000000     0.000000000000     0.965700000000     0          
O        O      0.088000000000     0.044000000000     0.882666666667     0          
O        O      0.256550000000     0.128250000000     0.953533333333     0          
O        O      0.200200000000     0.044150000000     0.936966666667     0          
O        O      0.233350000000     0.064050000000     0.666666666667     0          
O        O      0.285450000000     0.070900000000     0.947500000000     0          
O        O      0.129700000000     0.129700000000     0.897533333333     0          
O        O      0.119850000000     0.119850000000     0.965700000000     0          
O        O      0.044000000000     0.088000000000     0.882666666667     0          
O        O      0.128300000000     0.256550000000     0.953533333333     0          
O        O      0.156050000000     0.200200000000     0.936966666667     0          
O        O      0.169300000000     0.233350000000     0.666666666667     0          
O        O      0.214550000000     0.285450000000     0.947500000000     0          
O        O      0.000000000000     0.129700000000     0.897533333333     0          
O        O      0.000000000000     0.119850000000     0.965700000000     0          
O        O      0.456000000000     0.044000000000     0.882666666667     0          
O        O      0.371750000000     0.128300000000     0.953533333333     0          
O        O      0.455850000000     0.156050000000     0.936966666667     0          
O        O      0.435950000000     0.169300000000     0.666666666667     0          
O        O      0.429100000000     0.214550000000     0.947500000000     0          
O        O      0.370300000000     0.000000000000     0.897533333333     0          
O        O      0.380150000000     0.000000000000     0.965700000000     0          
O        O      0.412000000000     0.456000000000     0.882666666667     0          
O        O      0.243450000000     0.371750000000     0.953533333333     0          
O        O      0.299800000000     0.455850000000     0.936966666667     0          
O        O      0.266650000000     0.435950000000     0.666666666667     0          
O        O      0.214550000000     0.429100000000     0.947500000000     0          
O        O      0.370300000000     0.370300000000     0.897533333333     0          
O        O      0.380150000000     0.380150000000     0.965700000000     0          
O        O      0.456000000000     0.412000000000     0.882666666667     0          
O        O      0.299800000000     0.343950000000     0.936966666667     0          
O        O      0.455850000000     0.299800000000     0.936966666667     0          
O        O      0.156050000000     0.455850000000     0.936966666667     0          
O        O      0.200200000000     0.156050000000     0.936966666667     0          
O        O      0.044150000000     0.200200000000     0.936966666667     0          
O        O      0.343950000000     0.044150000000     0.936966666667     0          
O        O      0.156050000000     0.200200000000     0.729700000000     0          
O        O      0.455850000000     0.156050000000     0.729700000000     0          
O        O      0.299800000000     0.455850000000     0.729700000000     0          
O        O      0.343950000000     0.299800000000     0.729700000000     0          
O        O      0.044150000000     0.343950000000     0.729700000000     0          
O        O      0.200200000000     0.044150000000     0.729700000000     0          
O        O      0.256550000000     0.628300000000     0.046466666667     0          
O        O      0.200200000000     0.656050000000     0.063033333333     0          
O        O      0.233350000000     0.669300000000     0.000000000000     0          
O        O      0.285450000000     0.714550000000     0.052500000000     0          
O        O      0.129700000000     0.500000000000     0.102466666667     0          
O        O      0.119850000000     0.500000000000     0.034300000000     0          
O        O      0.044000000000     0.956000000000     0.117333333333     0          
O        O      0.103450000000     0.500000000000     0.166666666667     0          
O        O      0.044000000000     0.956000000000     0.000000000000     0          
O        O      0.128250000000     0.756550000000     0.046466666667     0          
O        O      0.044150000000     0.700200000000     0.063033333333     0          
O        O      0.064050000000     0.733350000000     0.000000000000     0          
O        O      0.070900000000     0.785450000000     0.052500000000     0          
O        O      0.129700000000     0.629700000000     0.102466666667     0          
O        O      0.119850000000     0.619850000000     0.034300000000     0          
O        O      0.088000000000     0.544000000000     0.117333333333     0          
O        O      0.103450000000     0.603450000000     0.166666666667     0          
O        O      0.088000000000     0.544000000000     0.000000000000     0          
O        O      0.371700000000     0.628250000000     0.046466666667     0          
O        O      0.343950000000     0.544150000000     0.063033333333     0          
O        O      0.330700000000     0.564050000000     0.000000000000     0          
O        O      0.285450000000     0.570900000000     0.052500000000     0          
O        O      0.000000000000     0.629700000000     0.102466666667     0          
O        O      0.000000000000     0.619850000000     0.034300000000     0          
O        O      0.044000000000     0.588000000000     0.117333333333     0          
O        O      0.000000000000     0.603450000000     0.166666666667     0          
O        O      0.044000000000     0.588000000000     0.000000000000     0          
O        O      0.243450000000     0.871700000000     0.046466666667     0          
O        O      0.299800000000     0.843950000000     0.063033333333     0          
O        O      0.266650000000     0.830700000000     0.000000000000     0          
O        O      0.214550000000     0.785450000000     0.052500000000     0          
O        O      0.370300000000     0.500000000000     0.102466666667     0          
O        O      0.380150000000     0.500000000000     0.034300000000     0          
O        O      0.456000000000     0.544000000000     0.117333333333     0          
O        O      0.396550000000     0.500000000000     0.166666666667     0          
O        O      0.456000000000     0.544000000000     0.000000000000     0          
O        O      0.371750000000     0.743450000000     0.046466666667     0          
O        O      0.455850000000     0.799800000000     0.063033333333     0          
O        O      0.435950000000     0.766650000000     0.000000000000     0          
O        O      0.429100000000     0.714550000000     0.052500000000     0          
O        O      0.370300000000     0.870300000000     0.102466666667     0          
O        O      0.380150000000     0.880150000000     0.034300000000     0          
O        O      0.412000000000     0.956000000000     0.117333333333     0          
O        O      0.396550000000     0.896550000000     0.166666666667     0          
O        O      0.412000000000     0.956000000000     0.000000000000     0          
O        O      0.128300000000     0.871750000000     0.046466666667     0          
O        O      0.156050000000     0.955850000000     0.063033333333     0          
O        O      0.169300000000     0.935950000000     0.000000000000     0          
O        O      0.214550000000     0.929100000000     0.052500000000     0          
O        O      0.000000000000     0.870300000000     0.102466666667     0          
O        O      0.000000000000     0.880150000000     0.034300000000     0          
O        O      0.456000000000     0.912000000000     0.117333333333     0          
O        O      0.000000000000     0.896550000000     0.166666666667     0          
O        O      0.456000000000     0.912000000000     0.000000000000     0          
O        O      0.371700000000     0.743450000000     0.286866666667     0          
O        O      0.343950000000     0.799800000000     0.270300000000     0          
O        O      0.330700000000     0.766650000000     0.000000000000     0          
O        O      0.285450000000     0.714550000000     0.280833333333     0          
O        O      0.000000000000     0.870300000000     0.230866666667     0          
O        O      0.000000000000     0.880150000000     0.299033333333     0          
O        O      0.044000000000     0.956000000000     0.216000000000     0          
O        O      0.128250000000     0.871700000000     0.286866666667     0          
O        O      0.044150000000     0.843950000000     0.270300000000     0          
O        O      0.064050000000     0.830700000000     0.000000000000     0          
O        O      0.070900000000     0.785450000000     0.280833333333     0          
O        O      0.129700000000     0.500000000000     0.230866666667     0          
O        O      0.119850000000     0.500000000000     0.299033333333     0          
O        O      0.088000000000     0.544000000000     0.216000000000     0          
O        O      0.256550000000     0.628250000000     0.286866666667     0          
O        O      0.200200000000     0.544150000000     0.270300000000     0          
O        O      0.233350000000     0.564050000000     0.000000000000     0          
O        O      0.285450000000     0.570900000000     0.280833333333     0          
O        O      0.129700000000     0.629700000000     0.230866666667     0          
O        O      0.119850000000     0.619850000000     0.299033333333     0          
O        O      0.044000000000     0.588000000000     0.216000000000     0          
O        O      0.128300000000     0.756550000000     0.286866666667     0          
O        O      0.156050000000     0.700200000000     0.270300000000     0          
O        O      0.169300000000     0.733350000000     0.000000000000     0          
O        O      0.214550000000     0.785450000000     0.280833333333     0          
O        O      0.000000000000     0.629700000000     0.230866666667     0          
O        O      0.000000000000     0.619850000000     0.299033333333     0          
O        O      0.456000000000     0.544000000000     0.216000000000     0          
O        O      0.371750000000     0.628300000000     0.286866666667     0          
O        O      0.455850000000     0.656050000000     0.270300000000     0          
O        O      0.435950000000     0.669300000000     0.000000000000     0          
O        O      0.429100000000     0.714550000000     0.280833333333     0          
O        O      0.370300000000     0.500000000000     0.230866666667     0          
O        O      0.380150000000     0.500000000000     0.299033333333     0          
O        O      0.412000000000     0.956000000000     0.216000000000     0          
O        O      0.243450000000     0.871750000000     0.286866666667     0          
O        O      0.299800000000     0.955850000000     0.270300000000     0          
O        O      0.266650000000     0.935950000000     0.000000000000     0          
O        O      0.214550000000     0.929100000000     0.280833333333     0          
O        O      0.370300000000     0.870300000000     0.230866666667     0          
O        O      0.380150000000     0.880150000000     0.299033333333     0          
O        O      0.456000000000     0.912000000000     0.216000000000     0          
O        O      0.299800000000     0.843950000000     0.270300000000     0          
O        O      0.455850000000     0.799800000000     0.270300000000     0          
O        O      0.156050000000     0.955850000000     0.270300000000     0          
O        O      0.200200000000     0.656050000000     0.270300000000     0          
O        O      0.044150000000     0.700200000000     0.270300000000     0          
O        O      0.343950000000     0.544150000000     0.270300000000     0          
O        O      0.156050000000     0.700200000000     0.063033333333     0          
O        O      0.455850000000     0.656050000000     0.063033333333     0          
O        O      0.299800000000     0.955850000000     0.063033333333     0          
O        O      0.343950000000     0.799800000000     0.063033333333     0          
O        O      0.044150000000     0.843950000000     0.063033333333     0          
O        O      0.200200000000     0.544150000000     0.063033333333     0          
O        O      0.256550000000     0.628300000000     0.379800000000     0          
O        O      0.200200000000     0.656050000000     0.396366666667     0          
O        O      0.233350000000     0.669300000000     0.333333333333     0          
O        O      0.285450000000     0.714550000000     0.385833333333     0          
O        O      0.129700000000     0.500000000000     0.435800000000     0          
O        O      0.119850000000     0.500000000000     0.367633333333     0          
O        O      0.044000000000     0.956000000000     0.450666666667     0          
O        O      0.103450000000     0.500000000000     0.500000000000     0          
O        O      0.044000000000     0.956000000000     0.333333333333     0          
O        O      0.128250000000     0.756550000000     0.379800000000     0          
O        O      0.044150000000     0.700200000000     0.396366666667     0          
O        O      0.064050000000     0.733350000000     0.333333333333     0          
O        O      0.070900000000     0.785450000000     0.385833333333     0          
O        O      0.129700000000     0.629700000000     0.435800000000     0          
O        O      0.119850000000     0.619850000000     0.367633333333     0          
O        O      0.088000000000     0.544000000000     0.450666666667     0          
O        O      0.103450000000     0.603450000000     0.500000000000     0          
O        O      0.088000000000     0.544000000000     0.333333333333     0          
O        O      0.371700000000     0.628250000000     0.379800000000     0          
O        O      0.343950000000     0.544150000000     0.396366666667     0          
O        O      0.330700000000     0.564050000000     0.333333333333     0          
O        O      0.285450000000     0.570900000000     0.385833333333     0          
O        O      0.000000000000     0.629700000000     0.435800000000     0          
O        O      0.000000000000     0.619850000000     0.367633333333     0          
O        O      0.044000000000     0.588000000000     0.450666666667     0          
O        O      0.000000000000     0.603450000000     0.500000000000     0          
O        O      0.044000000000     0.588000000000     0.333333333333     0          
O        O      0.243450000000     0.871700000000     0.379800000000     0          
O        O      0.299800000000     0.843950000000     0.396366666667     0          
O        O      0.266650000000     0.830700000000     0.333333333333     0          
O        O      0.214550000000     0.785450000000     0.385833333333     0          
O        O      0.370300000000     0.500000000000     0.435800000000     0          
O        O      0.380150000000     0.500000000000     0.367633333333     0          
O        O      0.456000000000     0.544000000000     0.450666666667     0          
O        O      0.396550000000     0.500000000000     0.500000000000     0          
O        O      0.456000000000     0.544000000000     0.333333333333     0          
O        O      0.371750000000     0.743450000000     0.379800000000     0          
O        O      0.455850000000     0.799800000000     0.396366666667     0          
O        O      0.435950000000     0.766650000000     0.333333333333     0          
O        O      0.429100000000     0.714550000000     0.385833333333     0          
O        O      0.370300000000     0.870300000000     0.435800000000     0          
O        O      0.380150000000     0.880150000000     0.367633333333     0          
O        O      0.412000000000     0.956000000000     0.450666666667     0          
O        O      0.396550000000     0.896550000000     0.500000000000     0          
O        O      0.412000000000     0.956000000000     0.333333333333     0          
O        O      0.128300000000     0.871750000000     0.379800000000     0          
O        O      0.156050000000     0.955850000000     0.396366666667     0          
O        O      0.169300000000     0.935950000000     0.333333333333     0          
O        O      0.214550000000     0.929100000000     0.385833333333     0          
O        O      0.000000000000     0.870300000000     0.435800000000     0          
O        O      0.000000000000     0.880150000000     0.367633333333     0          
O        O      0.456000000000     0.912000000000     0.450666666667     0          
O        O      0.000000000000     0.896550000000     0.500000000000     0          
O        O      0.456000000000     0.912000000000     0.333333333333     0          
O        O      0.371700000000     0.743450000000     0.620200000000     0          
O        O      0.343950000000     0.799800000000     0.603633333333     0          
O        O      0.330700000000     0.766650000000     0.333333333333     0          
O        O      0.285450000000     0.714550000000     0.614166666667     0          
O        O      0.000000000000     0.870300000000     0.564200000000     0          
O        O      0.000000000000     0.880150000000     0.632366666667     0          
O        O      0.044000000000     0.956000000000     0.549333333333     0          
O        O      0.128250000000     0.871700000000     0.620200000000     0          
O        O      0.044150000000     0.843950000000     0.603633333333     0          
O        O      0.064050000000     0.830700000000     0.333333333333     0          
O        O      0.070900000000     0.785450000000     0.614166666667     0          
O        O      0.129700000000     0.500000000000     0.564200000000     0          
O        O      0.119850000000     0.500000000000     0.632366666667     0          
O        O      0.088000000000     0.544000000000     0.549333333333     0          
O        O      0.256550000000     0.628250000000     0.620200000000     0          
O        O      0.200200000000     0.544150000000     0.603633333333     0          
O        O      0.233350000000     0.564050000000     0.333333333333     0          
O        O      0.285450000000     0.570900000000     0.614166666667     0          
O        O      0.129700000000     0.629700000000     0.564200000000     0          
O        O      0.119850000000     0.619850000000     0.632366666667     0          
O        O      0.044000000000     0.588000000000     0.549333333333     0          
O        O      0.128300000000     0.756550000000     0.620200000000     0          
O        O      0.156050000000     0.700200000000     0.603633333333     0          
O        O      0.169300000000     0.733350000000     0.333333333333     0          
O        O      0.214550000000     0.785450000000     0.614166666667     0          
O        O      0.000000000000     0.629700000000     0.564200000000     0          
O        O      0.000000000000     0.619850000000     0.632366666667     0          
O        O      0.456000000000     0.544000000000     0.549333333333     0          
O        O      0.371750000000     0.628300000000     0.620200000000     0          
O        O      0.455850000000     0.656050000000     0.603633333333     0          
O        O      0.435950000000     0.669300000000     0.333333333333     0          
O        O      0.429100000000     0.714550000000     0.614166666667     0          
O        O      0.370300000000     0.500000000000     0.564200000000     0          
O        O      0.380150000000     0.500000000000     0.632366666667     0          
O        O      0.412000000000     0.956000000000     0.549333333333     0          
O        O      0.243450000000     0.871750000000     0.620200000000     0          
O        O      0.299800000000     0.955850000000     0.603633333333     0          
O        O      0.266650000000     0.935950000000     0.333333333333     0          
O        O      0.214550000000     0.929100000000     0.614166666667     0          
O        O      0.370300000000     0.870300000000     0.564200000000     0          
O        O      0.380150000000     0.880150000000     0.632366666667     0          
O        O      0.456000000000     0.912000000000     0.549333333333     0          
O        O      0.299800000000     0.843950000000     0.603633333333     0          
O        O      0.455850000000     0.799800000000     0.603633333333     0          
O        O      0.156050000000     0.955850000000     0.603633333333     0          
O        O      0.200200000000     0.656050000000     0.603633333333     0          
O        O      0.044150000000     0.700200000000     0.603633333333     0          
O        O      0.343950000000     0.544150000000     0.603633333333     0          
O        O      0.156050000000     0.700200000000     0.396366666667     0          
O        O      0.455850000000     0.656050000000     0.396366666667     0          
O        O      0.299800000000     0.955850000000     0.396366666667     0          
O        O      0.343950000000     0.799800000000     0.396366666667     0          
O        O      0.044150000000     0.843950000000     0.396366666667     0          
O        O      0.200200000000     0.544150000000     0.396366666667     0          
O        O      0.256550000000     0.628300000000     0.713133333333     0          
O        O      0.200200000000     0.656050000000     0.729700000000     0          
O        O      0.233350000000     0.669300000000     0.666666666667     0          
O        O      0.285450000000     0.714550000000     0.719166666667     0          
O        O      0.129700000000     0.500000000000     0.769133333333     0          
O        O      0.119850000000     0.500000000000     0.700966666667     0          
O        O      0.044000000000     0.956000000000     0.784000000000     0          
O        O      0.103450000000     0.500000000000     0.833333333333     0          
O        O      0.044000000000     0.956000000000     0.666666666667     0          
O        O      0.128250000000     0.756550000000     0.713133333333     0          
O        O      0.044150000000     0.700200000000     0.729700000000     0          
O        O      0.064050000000     0.733350000000     0.666666666667     0          
O        O      0.070900000000     0.785450000000     0.719166666667     0          
O        O      0.129700000000     0.629700000000     0.769133333333     0          
O        O      0.119850000000     0.619850000000     0.700966666667     0          
O        O      0.088000000000     0.544000000000     0.784000000000     0          
O        O      0.103450000000     0.603450000000     0.833333333333     0          
O        O      0.088000000000     0.544000000000     0.666666666667     0          
O        O      0.371700000000     0.628250000000     0.713133333333     0          
O        O      0.343950000000     0.544150000000     0.729700000000     0          
O        O      0.330700000000     0.564050000000     0.666666666667     0          
O        O      0.285450000000     0.570900000000     0.719166666667     0          
O        O      0.000000000000     0.629700000000     0.769133333333     0          
O        O      0.000000000000     0.619850000000     0.700966666667     0          
O        O      0.044000000000     0.588000000000     0.784000000000     0          
O        O      0.000000000000     0.603450000000     0.833333333333     0          
O        O      0.044000000000     0.588000000000     0.666666666667     0          
O        O      0.243450000000     0.871700000000     0.713133333333     0          
O        O      0.299800000000     0.843950000000     0.729700000000     0          
O        O      0.266650000000     0.830700000000     0.666666666667     0          
O        O      0.214550000000     0.785450000000     0.719166666667     0          
O        O      0.370300000000     0.500000000000     0.769133333333     0          
O        O      0.380150000000     0.500000000000     0.700966666667     0          
O        O      0.456000000000     0.544000000000     0.784000000000     0          
O        O      0.396550000000     0.500000000000     0.833333333333     0          
O        O      0.456000000000     0.544000000000     0.666666666667     0          
O        O      0.371750000000     0.743450000000     0.713133333333     0          
O        O      0.455850000000     0.799800000000     0.729700000000     0          
O        O      0.435950000000     0.766650000000     0.666666666667     0          
O        O      0.429100000000     0.714550000000     0.719166666667     0          
O        O      0.370300000000     0.870300000000     0.769133333333     0          
O        O      0.380150000000     0.880150000000     0.700966666667     0          
O        O      0.412000000000     0.956000000000     0.784000000000     0          
O        O      0.396550000000     0.896550000000     0.833333333333     0          
O        O      0.412000000000     0.956000000000     0.666666666667     0          
O        O      0.128300000000     0.871750000000     0.713133333333     0          
O        O      0.156050000000     0.955850000000     0.729700000000     0          
O        O      0.169300000000     0.935950000000     0.666666666667     0          
O        O      0.214550000000     0.929100000000     0.719166666667     0          
O        O      0.000000000000     0.870300000000     0.769133333333     0          
O        O      0.000000000000     0.880150000000     0.700966666667     0          
O        O      0.456000000000     0.912000000000     0.784000000000     0          
O        O      0.000000000000     0.896550000000     0.833333333333     0          
O        O      0.456000000000     0.912000000000     0.666666666667     0          
O        O      0.371700000000     0.743450000000     0.953533333333     0          
O        O      0.343950000000     0.799800000000     0.936966666667     0          
O        O      0.330700000000     0.766650000000     0.666666666667     0          
O        O      0.285450000000     0.714550000000     0.947500000000     0          
O        O      0.000000000000     0.870300000000     0.897533333333     0          
O        O      0.000000000000     0.880150000000     0.965700000000     0          
O        O      0.044000000000     0.956000000000     0.882666666667     0          
O        O      0.128250000000     0.871700000000     0.953533333333     0          
O        O      0.044150000000     0.843950000000     0.936966666667     0          
O        O      0.064050000000     0.830700000000     0.666666666667     0          
O        O      0.070900000000     0.785450000000     0.947500000000     0          
O        O      0.129700000000     0.500000000000     0.897533333333     0          
O        O      0.119850000000     0.500000000000     0.965700000000     0          
O        O      0.088000000000     0.544000000000     0.882666666667     0          
O        O      0.256550000000     0.628250000000     0.953533333333     0          
O        O      0.200200000000     0.544150000000     0.936966666667     0          
O        O      0.233350000000     0.564050000000     0.666666666667     0          
O        O      0.285450000000     0.570900000000     0.947500000000     0          
O        O      0.129700000000     0.629700000000     0.897533333333     0          
O        O      0.119850000000     0.619850000000     0.965700000000     0          
O        O      0.044000000000     0.588000000000     0.882666666667     0          
O        O      0.128300000000     0.756550000000     0.953533333333     0          
O        O      0.156050000000     0.700200000000     0.936966666667     0          
O        O      0.169300000000     0.733350000000     0.666666666667     0          
O        O      0.214550000000     0.785450000000     0.947500000000     0          
O        O      0.000000000000     0.629700000000     0.897533333333     0          
O        O      0.000000000000     0.619850000000     0.965700000000     0          
O        O      0.456000000000     0.544000000000     0.882666666667     0          
O        O      0.371750000000     0.628300000000     0.953533333333     0          
O        O      0.455850000000     0.656050000000     0.936966666667     0          
O        O      0.435950000000     0.669300000000     0.666666666667     0          
O        O      0.429100000000     0.714550000000     0.947500000000     0          
O        O      0.370300000000     0.500000000000     0.897533333333     0          
O        O      0.380150000000     0.500000000000     0.965700000000     0          
O        O      0.412000000000     0.956000000000     0.882666666667     0          
O        O      0.243450000000     0.871750000000     0.953533333333     0          
O        O      0.299800000000     0.955850000000     0.936966666667     0          
O        O      0.266650000000     0.935950000000     0.666666666667     0          
O        O      0.214550000000     0.929100000000     0.947500000000     0          
O        O      0.370300000000     0.870300000000     0.897533333333     0          
O        O      0.380150000000     0.880150000000     0.965700000000     0          
O        O      0.456000000000     0.912000000000     0.882666666667     0          
O        O      0.299800000000     0.843950000000     0.936966666667     0          
O        O      0.455850000000     0.799800000000     0.936966666667     0          
O        O      0.156050000000     0.955850000000     0.936966666667     0          
O        O      0.200200000000     0.656050000000     0.936966666667     0          
O        O      0.044150000000     0.700200000000     0.936966666667     0          
O        O      0.343950000000     0.544150000000     0.936966666667     0          
O        O      0.156050000000     0.700200000000     0.729700000000     0          
O        O      0.455850000000     0.656050000000     0.729700000000     0          
O        O      0.299800000000     0.955850000000     0.729700000000     0          
O        O      0.343950000000     0.799800000000     0.729700000000     0          
O        O      0.044150000000     0.843950000000     0.729700000000     0          
O        O      0.200200000000     0.544150000000     0.729700000000     0          
O        O      0.756550000000     0.128300000000     0.046466666667     0          
O        O      0.700200000000     0.156050000000     0.063033333333     0          
O        O      0.733350000000     0.169300000000     0.000000000000     0          
O        O      0.785450000000     0.214550000000     0.052500000000     0          
O        O      0.629700000000     0.000000000000     0.102466666667     0          
O        O      0.619850000000     0.000000000000     0.034300000000     0          
O        O      0.544000000000     0.456000000000     0.117333333333     0          
O        O      0.603450000000     0.000000000000     0.166666666667     0          
O        O      0.544000000000     0.456000000000     0.000000000000     0          
O        O      0.628250000000     0.256550000000     0.046466666667     0          
O        O      0.544150000000     0.200200000000     0.063033333333     0          
O        O      0.564050000000     0.233350000000     0.000000000000     0          
O        O      0.570900000000     0.285450000000     0.052500000000     0          
O        O      0.629700000000     0.129700000000     0.102466666667     0          
O        O      0.619850000000     0.119850000000     0.034300000000     0          
O        O      0.588000000000     0.044000000000     0.117333333333     0          
O        O      0.603450000000     0.103450000000     0.166666666667     0          
O        O      0.588000000000     0.044000000000     0.000000000000     0          
O        O      0.871700000000     0.128250000000     0.046466666667     0          
O        O      0.843950000000     0.044150000000     0.063033333333     0          
O        O      0.830700000000     0.064050000000     0.000000000000     0          
O        O      0.785450000000     0.070900000000     0.052500000000     0          
O        O      0.500000000000     0.129700000000     0.102466666667     0          
O        O      0.500000000000     0.119850000000     0.034300000000     0          
O        O      0.544000000000     0.088000000000     0.117333333333     0          
O        O      0.500000000000     0.103450000000     0.166666666667     0          
O        O      0.544000000000     0.088000000000     0.000000000000     0          
O        O      0.743450000000     0.371700000000     0.046466666667     0          
O        O      0.799800000000     0.343950000000     0.063033333333     0          
O        O      0.766650000000     0.330700000000     0.000000000000     0          
O        O      0.714550000000     0.285450000000     0.052500000000     0          
O        O      0.870300000000     0.000000000000     0.102466666667     0          
O        O      0.880150000000     0.000000000000     0.034300000000     0          
O        O      0.956000000000     0.044000000000     0.117333333333     0          
O        O      0.896550000000     0.000000000000     0.166666666667     0          
O        O      0.956000000000     0.044000000000     0.000000000000     0          
O        O      0.871750000000     0.243450000000     0.046466666667     0          
O        O      0.955850000000     0.299800000000     0.063033333333     0          
O        O      0.935950000000     0.266650000000     0.000000000000     0          
O        O      0.929100000000     0.214550000000     0.052500000000     0          
O        O      0.870300000000     0.370300000000     0.102466666667     0          
O        O      0.880150000000     0.380150000000     0.034300000000     0          
O        O      0.912000000000     0.456000000000     0.117333333333     0          
O        O      0.896550000000     0.396550000000     0.166666666667     0          
O        O      0.912000000000     0.456000000000     0.000000000000     0          
O        O      0.628300000000     0.371750000000     0.046466666667     0          
O        O      0.656050000000     0.455850000000     0.063033333333     0          
O        O      0.669300000000     0.435950000000     0.000000000000     0          
O        O      0.714550000000     0.429100000000     0.052500000000     0          
O        O      0.500000000000     0.370300000000     0.102466666667     0          
O        O      0.500000000000     0.380150000000     0.034300000000     0          
O        O      0.956000000000     0.412000000000     0.117333333333     0          
O        O      0.500000000000     0.396550000000     0.166666666667     0          
O        O      0.956000000000     0.412000000000     0.000000000000     0          
O        O      0.871700000000     0.243450000000     0.286866666667     0          
O        O      0.843950000000     0.299800000000     0.270300000000     0          
O        O      0.830700000000     0.266650000000     0.000000000000     0          
O        O      0.785450000000     0.214550000000     0.280833333333     0          
O        O      0.500000000000     0.370300000000     0.230866666667     0          
O        O      0.500000000000     0.380150000000     0.299033333333     0          
O        O      0.544000000000     0.456000000000     0.216000000000     0          
O        O      0.628250000000     0.371700000000     0.286866666667     0          
O        O      0.544150000000     0.343950000000     0.270300000000     0          
O        O      0.564050000000     0.330700000000     0.000000000000     0          
O        O      0.570900000000     0.285450000000     0.280833333333     0          
O        O      0.629700000000     0.000000000000     0.230866666667     0          
O        O      0.619850000000     0.000000000000     0.299033333333     0          
O        O      0.588000000000     0.044000000000     0.216000000000     0          
O        O      0.756550000000     0.128250000000     0.286866666667     0          
O        O      0.700200000000     0.044150000000     0.270300000000     0          
O        O      0.733350000000     0.064050000000     0.000000000000     0          
O        O      0.785450000000     0.070900000000     0.280833333333     0          
O        O      0.629700000000     0.129700000000     0.230866666667     0          
O        O      0.619850000000     0.119850000000     0.299033333333     0          
O        O      0.544000000000     0.088000000000     0.216000000000     0          
O        O      0.628300000000     0.256550000000     0.286866666667     0          
O        O      0.656050000000     0.200200000000     0.270300000000     0          
O        O      0.669300000000     0.233350000000     0.000000000000     0          
O        O      0.714550000000     0.285450000000     0.280833333333     0          
O        O      0.500000000000     0.129700000000     0.230866666667     0          
O        O      0.500000000000     0.119850000000     0.299033333333     0          
O        O      0.956000000000     0.044000000000     0.216000000000     0          
O        O      0.871750000000     0.128300000000     0.286866666667     0          
O        O      0.955850000000     0.156050000000     0.270300000000     0          
O        O      0.935950000000     0.169300000000     0.000000000000     0          
O        O      0.929100000000     0.214550000000     0.280833333333     0          
O        O      0.870300000000     0.000000000000     0.230866666667     0          
O        O      0.880150000000     0.000000000000     0.299033333333     0          
O        O      0.912000000000     0.456000000000     0.216000000000     0          
O        O      0.743450000000     0.371750000000     0.286866666667     0          
O        O      0.799800000000     0.455850000000     0.270300000000     0          
O        O      0.766650000000     0.435950000000     0.000000000000     0          
O        O      0.714550000000     0.429100000000     0.280833333333     0          
O        O      0.870300000000     0.370300000000     0.230866666667     0          
O        O      0.880150000000     0.380150000000     0.299033333333     0          
O        O      0.956000000000     0.412000000000     0.216000000000     0          
O        O      0.799800000000     0.343950000000     0.270300000000     0          
O        O      0.955850000000     0.299800000000     0.270300000000     0          
O        O      0.656050000000     0.455850000000     0.270300000000     0          
O        O      0.700200000000     0.156050000000     0.270300000000     0          
O        O      0.544150000000     0.200200000000     0.270300000000     0          
O        O      0.843950000000     0.044150000000     0.270300000000     0          
O        O      0.656050000000     0.200200000000     0.063033333333     0          
O        O      0.955850000000     0.156050000000     0.063033333333     0          
O        O      0.799800000000     0.455850000000     0.063033333333     0          
O        O      0.843950000000     0.299800000000     0.063033333333     0          
O        O      0.544150000000     0.343950000000     0.063033333333     0          
O        O      0.700200000000     0.044150000000     0.063033333333     0          
O        O      0.756550000000     0.128300000000     0.379800000000     0          
O        O      0.700200000000     0.156050000000     0.396366666667     0          
O        O      0.733350000000     0.169300000000     0.333333333333     0          
O        O      0.785450000000     0.214550000000     0.385833333333     0          
O        O      0.629700000000     0.000000000000     0.435800000000     0          
O        O      0.619850000000     0.000000000000     0.367633333333     0          
O        O      0.544000000000     0.456000000000     0.450666666667     0          
O        O      0.603450000000     0.000000000000     0.500000000000     0          
O        O      0.544000000000     0.456000000000     0.333333333333     0          
O        O      0.628250000000     0.256550000000     0.379800000000     0          
O        O      0.544150000000     0.200200000000     0.396366666667     0          
O        O      0.564050000000     0.233350000000     0.333333333333     0          
O        O      0.570900000000     0.285450000000     0.385833333333     0          
O        O      0.629700000000     0.129700000000     0.435800000000     0          
O        O      0.619850000000     0.119850000000     0.367633333333     0          
O        O      0.588000000000     0.044000000000     0.450666666667     0          
O        O      0.603450000000     0.103450000000     0.500000000000     0          
O        O      0.588000000000     0.044000000000     0.333333333333     0          
O        O      0.871700000000     0.128250000000     0.379800000000     0          
O        O      0.843950000000     0.044150000000     0.396366666667     0          
O        O      0.830700000000     0.064050000000     0.333333333333     0          
O        O      0.785450000000     0.070900000000     0.385833333333     0          
O        O      0.500000000000     0.129700000000     0.435800000000     0          
O        O      0.500000000000     0.119850000000     0.367633333333     0          
O        O      0.544000000000     0.088000000000     0.450666666667     0          
O        O      0.500000000000     0.103450000000     0.500000000000     0          
O        O      0.544000000000     0.088000000000     0.333333333333     0          
O        O      0.743450000000     0.371700000000     0.379800000000     0          
O        O      0.799800000000     0.343950000000     0.396366666667     0          
O        O      0.766650000000     0.330700000000     0.333333333333     0          
O        O      0.714550000000     0.285450000000     0.385833333333     0          
O        O      0.870300000000     0.000000000000     0.435800000000     0          
O        O      0.880150000000     0.000000000000     0.367633333333     0          
O        O      0.956000000000     0.044000000000     0.450666666667     0          
O        O      0.896550000000     0.000000000000     0.500000000000     0          
O        O      0.956000000000     0.044000000000     0.333333333333     0          
O        O      0.871750000000     0.243450000000     0.379800000000     0          
O        O      0.955850000000     0.299800000000     0.396366666667     0          
O        O      0.935950000000     0.266650000000     0.333333333333     0          
O        O      0.929100000000     0.214550000000     0.385833333333     0          
O        O      0.870300000000     0.370300000000     0.435800000000     0          
O        O      0.880150000000     0.380150000000     0.367633333333     0          
O        O      0.912000000000     0.456000000000     0.450666666667     0          
O        O      0.896550000000     0.396550000000     0.500000000000     0          
O        O      0.912000000000     0.456000000000     0.333333333333     0          
O        O      0.628300000000     0.371750000000     0.379800000000     0          
O        O      0.656050000000     0.455850000000     0.396366666667     0          
O        O      0.669300000000     0.435950000000     0.333333333333     0          
O        O      0.714550000000     0.429100000000     0.385833333333     0          
O        O      0.500000000000     0.370300000000     0.435800000000     0          
O        O      0.500000000000     0.380150000000     0.367633333333     0          
O        O      0.956000000000     0.412000000000     0.450666666667     0          
O        O      0.500000000000     0.396550000000     0.500000000000     0          
O        O      0.956000000000     0.412000000000     0.333333333333     0          
O        O      0.871700000000     0.243450000000     0.620200000000     0          
O        O      0.843950000000     0.299800000000     0.603633333333     0          
O        O      0.830700000000     0.266650000000     0.333333333333     0          
O        O      0.785450000000     0.214550000000     0.614166666667     0          
O        O      0.500000000000     0.370300000000     0.564200000000     0          
O        O      0.500000000000     0.380150000000     0.632366666667     0          
O        O      0.544000000000     0.456000000000     0.549333333333     0          
O        O      0.628250000000     0.371700000000     0.620200000000     0          
O        O      0.544150000000     0.343950000000     0.603633333333     0          
O        O      0.564050000000     0.330700000000     0.333333333333     0          
O        O      0.570900000000     0.285450000000     0.614166666667     0          
O        O      0.629700000000     0.000000000000     0.564200000000     0          
O        O      0.619850000000     0.000000000000     0.632366666667     0          
O        O      0.588000000000     0.044000000000     0.549333333333     0          
O        O      0.756550000000     0.128250000000     0.620200000000     0          
O        O      0.700200000000     0.044150000000     0.603633333333     0          
O        O      0.733350000000     0.064050000000     0.333333333333     0          
O        O      0.785450000000     0.070900000000     0.614166666667     0          
O        O      0.629700000000     0.129700000000     0.564200000000     0          
O        O      0.619850000000     0.119850000000     0.632366666667     0          
O        O      0.544000000000     0.088000000000     0.549333333333     0          
O        O      0.628300000000     0.256550000000     0.620200000000     0          
O        O      0.656050000000     0.200200000000     0.603633333333     0          
O        O      0.669300000000     0.233350000000     0.333333333333     0          
O        O      0.714550000000     0.285450000000     0.614166666667     0          
O        O      0.500000000000     0.129700000000     0.564200000000     0          
O        O      0.500000000000     0.119850000000     0.632366666667     0          
O        O      0.956000000000     0.044000000000     0.549333333333     0          
O        O      0.871750000000     0.128300000000     0.620200000000     0          
O        O      0.955850000000     0.156050000000     0.603633333333     0          
O        O      0.935950000000     0.169300000000     0.333333333333     0          
O        O      0.929100000000     0.214550000000     0.614166666667     0          
O        O      0.870300000000     0.000000000000     0.564200000000     0          
O        O      0.880150000000     0.000000000000     0.632366666667     0          
O        O      0.912000000000     0.456000000000     0.549333333333     0          
O        O      0.743450000000     0.371750000000     0.620200000000     0          
O        O      0.799800000000     0.455850000000     0.603633333333     0          
O        O      0.766650000000     0.435950000000     0.333333333333     0          
O        O      0.714550000000     0.429100000000     0.614166666667     0          
O        O      0.870300000000     0.370300000000     0.564200000000     0          
O        O      0.880150000000     0.380150000000     0.632366666667     0          
O        O      0.956000000000     0.412000000000     0.549333333333     0          
O        O      0.799800000000     0.343950000000     0.603633333333     0          
O        O      0.955850000000     0.299800000000     0.603633333333     0          
O        O      0.656050000000     0.455850000000     0.603633333333     0          
O        O      0.700200000000     0.156050000000     0.603633333333     0          
O        O      0.544150000000     0.200200000000     0.603633333333     0          
O        O      0.843950000000     0.044150000000     0.603633333333     0          
O        O      0.656050000000     0.200200000000     0.396366666667     0          
O        O      0.955850000000     0.156050000000     0.396366666667     0          
O        O      0.799800000000     0.455850000000     0.396366666667     0          
O        O      0.843950000000     0.299800000000     0.396366666667     0          
O        O      0.544150000000     0.343950000000     0.396366666667     0          
O        O      0.700200000000     0.044150000000     0.396366666667     0          
O        O      0.756550000000     0.128300000000     0.713133333333     0          
O        O      0.700200000000     0.156050000000     0.729700000000     0          
O        O      0.733350000000     0.169300000000     0.666666666667     0          
O        O      0.785450000000     0.214550000000     0.719166666667     0          
O        O      0.629700000000     0.000000000000     0.769133333333     0          
O        O      0.619850000000     0.000000000000     0.700966666667     0          
O        O      0.544000000000     0.456000000000     0.784000000000     0          
O        O      0.603450000000     0.000000000000     0.833333333333     0          
O        O      0.544000000000     0.456000000000     0.666666666667     0          
O        O      0.628250000000     0.256550000000     0.713133333333     0          
O        O      0.544150000000     0.200200000000     0.729700000000     0          
O        O      0.564050000000     0.233350000000     0.666666666667     0          
O        O      0.570900000000     0.285450000000     0.719166666667     0          
O        O      0.629700000000     0.129700000000     0.769133333333     0          
O        O      0.619850000000     0.119850000000     0.700966666667     0          
O        O      0.588000000000     0.044000000000     0.784000000000     0          
O        O      0.603450000000     0.103450000000     0.833333333333     0          
O        O      0.588000000000     0.044000000000     0.666666666667     0          
O        O      0.871700000000     0.128250000000     0.713133333333     0          
O        O      0.843950000000     0.044150000000     0.729700000000     0          
O        O      0.830700000000     0.064050000000     0.666666666667     0          
O        O      0.785450000000     0.070900000000     0.719166666667     0          
O        O      0.500000000000     0.129700000000     0.769133333333     0          
O        O      0.500000000000     0.119850000000     0.700966666667     0          
O        O      0.544000000000     0.088000000000     0.784000000000     0          
O        O      0.500000000000     0.103450000000     0.833333333333     0          
O        O      0.544000000000     0.088000000000     0.666666666667     0          
O        O      0.743450000000     0.371700000000     0.713133333333     0          
O        O      0.799800000000     0.343950000000     0.729700000000     0          
O        O      0.766650000000     0.330700000000     0.666666666667     0          
O        O      0.714550000000     0.285450000000     0.719166666667     0          
O        O      0.870300000000     0.000000000000     0.769133333333     0          
O        O      0.880150000000     0.000000000000     0.700966666667     0          
O        O      0.956000000000     0.044000000000     0.784000000000     0          
O        O      0.896550000000     0.000000000000     0.833333333333     0          
O        O      0.956000000000     0.044000000000     0.666666666667     0          
O        O      0.871750000000     0.243450000000     0.713133333333     0          
O        O      0.955850000000     0.299800000000     0.729700000000     0          
O        O      0.935950000000     0.266650000000     0.666666666667     0          
O        O      0.929100000000     0.214550000000     0.719166666667     0          
O        O      0.870300000000     0.370300000000     0.769133333333     0          
O        O      0.880150000000     0.380150000000     0.700966666667     0          
O        O      0.912000000000     0.456000000000     0.784000000000     0          
O        O      0.896550000000     0.396550000000     0.833333333333     0          
O        O      0.912000000000     0.456000000000     0.666666666667     0          
O        O      0.628300000000     0.371750000000     0.713133333333     0          
O        O      0.656050000000     0.455850000000     0.729700000000     0          
O        O      0.669300000000     0.435950000000     0.666666666667     0          
O        O      0.714550000000     0.429100000000     0.719166666667     0          
O        O      0.500000000000     0.370300000000     0.769133333333     0          
O        O      0.500000000000     0.380150000000     0.700966666667     0          
O        O      0.956000000000     0.412000000000     0.784000000000     0          
O        O      0.500000000000     0.396550000000     0.833333333333     0          
O        O      0.956000000000     0.412000000000     0.666666666667     0          
O        O      0.871700000000     0.243450000000     0.953533333333     0          
O        O      0.843950000000     0.299800000000     0.936966666667     0          
O        O      0.830700000000     0.266650000000     0.666666666667     0          
O        O      0.785450000000     0.214550000000     0.947500000000     0          
O        O      0.500000000000     0.370300000000     0.897533333333     0          
O        O      0.500000000000     0.380150000000     0.965700000000     0          
O        O      0.544000000000     0.456000000000     0.882666666667     0          
O        O      0.628250000000     0.371700000000     0.953533333333     0          
O        O      0.544150000000     0.343950000000     0.936966666667     0          
O        O      0.564050000000     0.330700000000     0.666666666667     0          
O        O      0.570900000000     0.285450000000     0.947500000000     0          
O        O      0.629700000000     0.000000000000     0.897533333333     0          
O        O      0.619850000000     0.000000000000     0.965700000000     0          
O        O      0.588000000000     0.044000000000     0.882666666667     0          
O        O      0.756550000000     0.128250000000     0.953533333333     0          
O        O      0.700200000000     0.044150000000     0.936966666667     0          
O        O      0.733350000000     0.064050000000     0.666666666667     0          
O        O      0.785450000000     0.070900000000     0.947500000000     0          
O        O      0.629700000000     0.129700000000     0.897533333333     0          
O        O      0.619850000000     0.119850000000     0.965700000000     0          
O        O      0.544000000000     0.088000000000     0.882666666667     0          
O        O      0.628300000000     0.256550000000     0.953533333333     0          
O        O      0.656050000000     0.200200000000     0.936966666667     0          
O        O      0.669300000000     0.233350000000     0.666666666667     0          
O        O      0.714550000000     0.285450000000     0.947500000000     0          
O        O      0.500000000000     0.129700000000     0.897533333333     0          
O        O      0.500000000000     0.119850000000     0.965700000000     0          
O        O      0.956000000000     0.044000000000     0.882666666667     0          
O        O      0.871750000000     0.128300000000     0.953533333333     0          
O        O      0.955850000000     0.156050000000     0.936966666667     0          
O        O      0.935950000000     0.169300000000     0.666666666667     0          
O        O      0.929100000000     0.214550000000     0.947500000000     0          
O        O      0.870300000000     0.000000000000     0.897533333333     0          
O        O      0.880150000000     0.000000000000     0.965700000000     0          
O        O      0.912000000000     0.456000000000     0.882666666667     0          
O        O      0.743450000000     0.371750000000     0.953533333333     0          
O        O      0.799800000000     0.455850000000     0.936966666667     0          
O        O      0.766650000000     0.435950000000     0.666666666667     0          
O        O      0.714550000000     0.429100000000     0.947500000000     0          
O        O      0.870300000000     0.370300000000     0.897533333333     0          
O        O      0.880150000000     0.380150000000     0.965700000000     0          
O        O      0.956000000000     0.412000000000     0.882666666667     0          
O        O      0.799800000000     0.343950000000     0.936966666667     0          
O        O      0.955850000000     0.299800000000     0.936966666667     0          
O        O      0.656050000000     0.455850000000     0.936966666667     0          
O        O      0.700200000000     0.156050000000     0.936966666667     0          
O        O      0.544150000000     0.200200000000     0.936966666667     0          
O        O      0.843950000000     0.044150000000     0.936966666667     0          
O        O      0.656050000000     0.200200000000     0.729700000000     0          
O        O      0.955850000000     0.156050000000     0.729700000000     0          
O        O      0.799800000000     0.455850000000     0.729700000000     0          
O        O      0.843950000000     0.299800000000     0.729700000000     0          
O        O      0.544150000000     0.343950000000     0.729700000000     0          
O        O      0.700200000000     0.044150000000     0.729700000000     0          
O        O      0.756550000000     0.628300000000     0.046466666667     0          
O        O      0.700200000000     0.656050000000     0.063033333333     0          
O        O      0.733350000000     0.669300000000     0.000000000000     0          
O        O      0.785450000000     0.714550000000     0.052500000000     0          
O        O      0.629700000000     0.500000000000     0.102466666667     0          
O        O      0.619850000000     0.500000000000     0.034300000000     0          
O        O      0.544000000000     0.956000000000     0.117333333333     0          
O        O      0.603450000000     0.500000000000     0.166666666667     0          
O        O      0.544000000000     0.956000000000     0.000000000000     0          
O        O      0.628250000000     0.756550000000     0.046466666667     0          
O        O      0.544150000000     0.700200000000     0.063033333333     0          
O        O      0.564050000000     0.733350000000     0.000000000000     0          
O        O      0.570900000000     0.785450000000     0.052500000000     0          
O        O      0.629700000000     0.629700000000     0.102466666667     0          
O        O      0.619850000000     0.619850000000     0.034300000000     0          
O        O      0.588000000000     0.544000000000     0.117333333333     0          
O        O      0.603450000000     0.603450000000     0.166666666667     0          
O        O      0.588000000000     0.544000000000     0.000000000000     0          
O        O      0.871700000000     0.628250000000     0.046466666667     0          
O        O      0.843950000000     0.544150000000     0.063033333333     0          
O        O      0.830700000000     0.564050000000     0.000000000000     0          
O        O      0.785450000000     0.570900000000     0.052500000000     0          
O        O      0.500000000000     0.629700000000     0.102466666667     0          
O        O      0.500000000000     0.619850000000     0.034300000000     0          
O        O      0.544000000000     0.588000000000     0.117333333333     0          
O        O      0.500000000000     0.603450000000     0.166666666667     0          
O        O      0.544000000000     0.588000000000     0.000000000000     0          
O        O      0.743450000000     0.871700000000     0.046466666667     0          
O        O      0.799800000000     0.843950000000     0.063033333333     0          
O        O      0.766650000000     0.830700000000     0.000000000000     0          
O        O      0.714550000000     0.785450000000     0.052500000000     0          
O        O      0.870300000000     0.500000000000     0.102466666667     0          
O        O      0.880150000000     0.500000000000     0.034300000000     0          
O        O      0.956000000000     0.544000000000     0.117333333333     0          
O        O      0.896550000000     0.500000000000     0.166666666667     0          
O        O      0.956000000000     0.544000000000     0.000000000000     0          
O        O      0.871750000000     0.743450000000     0.046466666667     0          
O        O      0.955850000000     0.799800000000     0.063033333333     0          
O        O      0.935950000000     0.766650000000     0.000000000000     0          
O        O      0.929100000000     0.714550000000     0.052500000000     0          
O        O      0.870300000000     0.870300000000     0.102466666667     0          
O        O      0.880150000000     0.880150000000     0.034300000000     0          
O        O      0.912000000000     0.956000000000     0.117333333333     0          
O        O      0.896550000000     0.896550000000     0.166666666667     0          
O        O      0.912000000000     0.956000000000     0.000000000000     0          
O        O      0.628300000000     0.871750000000     0.046466666667     0          
O        O      0.656050000000     0.955850000000     0.063033333333     0          
O        O      0.669300000000     0.935950000000     0.000000000000     0          
O        O      0.714550000000     0.929100000000     0.052500000000     0          
O        O      0.500000000000     0.870300000000     0.102466666667     0          
O        O      0.500000000000     0.880150000000     0.034300000000     0          
O        O      0.956000000000     0.912000000000     0.117333333333     0          
O        O      0.500000000000     0.896550000000     0.166666666667     0          
O        O      0.956000000000     0.912000000000     0.000000000000     0          
O        O      0.871700000000     0.743450000000     0.286866666667     0          
O        O      0.843950000000     0.799800000000     0.270300000000     0          
O        O      0.830700000000     0.766650000000     0.000000000000     0          
O        O      0.785450000000     0.714550000000     0.280833333333     0          
O        O      0.500000000000     0.870300000000     0.230866666667     0          
O        O      0.500000000000     0.880150000000     0.299033333333     0          
O        O      0.544000000000     0.956000000000     0.216000000000     0          
O        O      0.628250000000     0.871700000000     0.286866666667     0          
O        O      0.544150000000     0.843950000000     0.270300000000     0          
O        O      0.564050000000     0.830700000000     0.000000000000     0          
O        O      0.570900000000     0.785450000000     0.280833333333     0          
O        O      0.629700000000     0.500000000000     0.230866666667     0          
O        O      0.619850000000     0.500000000000     0.299033333333     0          
O        O      0.588000000000     0.544000000000     0.216000000000     0          
O        O      0.756550000000     0.628250000000     0.286866666667     0          
O        O      0.700200000000     0.544150000000     0.270300000000     0          
O        O      0.733350000000     0.564050000000     0.000000000000     0          
O        O      0.785450000000     0.570900000000     0.280833333333     0          
O        O      0.629700000000     0.629700000000     0.230866666667     0          
O        O      0.619850000000     0.619850000000     0.299033333333     0          
O        O      0.544000000000     0.588000000000     0.216000000000     0          
O        O      0.628300000000     0.756550000000     0.286866666667     0          
O        O      0.656050000000     0.700200000000     0.270300000000     0          
O        O      0.669300000000     0.733350000000     0.000000000000     0          
O        O      0.714550000000     0.785450000000     0.280833333333     0          
O        O      0.500000000000     0.629700000000     0.230866666667     0          
O        O      0.500000000000     0.619850000000     0.299033333333     0          
O        O      0.956000000000     0.544000000000     0.216000000000     0          
O        O      0.871750000000     0.628300000000     0.286866666667     0          
O        O      0.955850000000     0.656050000000     0.270300000000     0          
O        O      0.935950000000     0.669300000000     0.000000000000     0          
O        O      0.929100000000     0.714550000000     0.280833333333     0          
O        O      0.870300000000     0.500000000000     0.230866666667     0          
O        O      0.880150000000     0.500000000000     0.299033333333     0          
O        O      0.912000000000     0.956000000000     0.216000000000     0          
O        O      0.743450000000     0.871750000000     0.286866666667     0          
O        O      0.799800000000     0.955850000000     0.270300000000     0          
O        O      0.766650000000     0.935950000000     0.000000000000     0          
O        O      0.714550000000     0.929100000000     0.280833333333     0          
O        O      0.870300000000     0.870300000000     0.230866666667     0          
O        O      0.880150000000     0.880150000000     0.299033333333     0          
O        O      0.956000000000     0.912000000000     0.216000000000     0          
O        O      0.799800000000     0.843950000000     0.270300000000     0          
O        O      0.955850000000     0.799800000000     0.270300000000     0          
O        O      0.656050000000     0.955850000000     0.270300000000     0          
O        O      0.700200000000     0.656050000000     0.270300000000     0          
O        O      0.544150000000     0.700200000000     0.270300000000     0          
O        O      0.843950000000     0.544150000000     0.270300000000     0          
O        O      0.656050000000     0.700200000000     0.063033333333     0          
O        O      0.955850000000     0.656050000000     0.063033333333     0          
O        O      0.799800000000     0.955850000000     0.063033333333     0          
O        O      0.843950000000     0.799800000000     0.063033333333     0          
O        O      0.544150000000     0.843950000000     0.063033333333     0          
O        O      0.700200000000     0.544150000000     0.063033333333     0          
O        O      0.756550000000     0.628300000000     0.379800000000     0          
O        O      0.700200000000     0.656050000000     0.396366666667     0          
O        O      0.733350000000     0.669300000000     0.333333333333     0          
O        O      0.785450000000     0.714550000000     0.385833333333     0          
O        O      0.629700000000     0.500000000000     0.435800000000     0          
O        O      0.619850000000     0.500000000000     0.367633333333     0          
O        O      0.544000000000     0.956000000000     0.450666666667     0          
O        O      0.603450000000     0.500000000000     0.500000000000     0          
O        O      0.544000000000     0.956000000000     0.333333333333     0          
O        O      0.628250000000     0.756550000000     0.379800000000     0          
O        O      0.544150000000     0.700200000000     0.396366666667     0          
O        O      0.564050000000     0.733350000000     0.333333333333     0          
O        O      0.570900000000     0.785450000000     0.385833333333     0          
O        O      0.629700000000     0.629700000000     0.435800000000     0          
O        O      0.619850000000     0.619850000000     0.367633333333     0          
O        O      0.588000000000     0.544000000000     0.450666666667     0          
O        O      0.603450000000     0.603450000000     0.500000000000     0          
O        O      0.588000000000     0.544000000000     0.333333333333     0          
O        O      0.871700000000     0.628250000000     0.379800000000     0          
O        O      0.843950000000     0.544150000000     0.396366666667     0          
O        O      0.830700000000     0.564050000000     0.333333333333     0          
O        O      0.785450000000     0.570900000000     0.385833333333     0          
O        O      0.500000000000     0.629700000000     0.435800000000     0          
O        O      0.500000000000     0.619850000000     0.367633333333     0          
O        O      0.544000000000     0.588000000000     0.450666666667     0          
O        O      0.500000000000     0.603450000000     0.500000000000     0          
O        O      0.544000000000     0.588000000000     0.333333333333     0          
O        O      0.743450000000     0.871700000000     0.379800000000     0          
O        O      0.799800000000     0.843950000000     0.396366666667     0          
O        O      0.766650000000     0.830700000000     0.333333333333     0          
O        O      0.714550000000     0.785450000000     0.385833333333     0          
O        O      0.870300000000     0.500000000000     0.435800000000     0          
O        O      0.880150000000     0.500000000000     0.367633333333     0          
O        O      0.956000000000     0.544000000000     0.450666666667     0          
O        O      0.896550000000     0.500000000000     0.500000000000     0          
O        O      0.956000000000     0.544000000000     0.333333333333     0          
O        O      0.871750000000     0.743450000000     0.379800000000     0          
O        O      0.955850000000     0.799800000000     0.396366666667     0          
O        O      0.935950000000     0.766650000000     0.333333333333     0          
O        O      0.929100000000     0.714550000000     0.385833333333     0          
O        O      0.870300000000     0.870300000000     0.435800000000     0          
O        O      0.880150000000     0.880150000000     0.367633333333     0          
O        O      0.912000000000     0.956000000000     0.450666666667     0          
O        O      0.896550000000     0.896550000000     0.500000000000     0          
O        O      0.912000000000     0.956000000000     0.333333333333     0          
O        O      0.628300000000     0.871750000000     0.379800000000     0          
O        O      0.656050000000     0.955850000000     0.396366666667     0          
O        O      0.669300000000     0.935950000000     0.333333333333     0          
O        O      0.714550000000     0.929100000000     0.385833333333     0          
O        O      0.500000000000     0.870300000000     0.435800000000     0          
O        O      0.500000000000     0.880150000000     0.367633333333     0          
O        O      0.956000000000     0.912000000000     0.450666666667     0          
O        O      0.500000000000     0.896550000000     0.500000000000     0          
O        O      0.956000000000     0.912000000000     0.333333333333     0          
O        O      0.871700000000     0.743450000000     0.620200000000     0          
O        O      0.843950000000     0.799800000000     0.603633333333     0          
O        O      0.830700000000     0.766650000000     0.333333333333     0          
O        O      0.785450000000     0.714550000000     0.614166666667     0          
O        O      0.500000000000     0.870300000000     0.564200000000     0          
O        O      0.500000000000     0.880150000000     0.632366666667     0          
O        O      0.544000000000     0.956000000000     0.549333333333     0          
O        O      0.628250000000     0.871700000000     0.620200000000     0          
O        O      0.544150000000     0.843950000000     0.603633333333     0          
O        O      0.564050000000     0.830700000000     0.333333333333     0          
O        O      0.570900000000     0.785450000000     0.614166666667     0          
O        O      0.629700000000     0.500000000000     0.564200000000     0          
O        O      0.619850000000     0.500000000000     0.632366666667     0          
O        O      0.588000000000     0.544000000000     0.549333333333     0          
O        O      0.756550000000     0.628250000000     0.620200000000     0          
O        O      0.700200000000     0.544150000000     0.603633333333     0          
O        O      0.733350000000     0.564050000000     0.333333333333     0          
O        O      0.785450000000     0.570900000000     0.614166666667     0          
O        O      0.629700000000     0.629700000000     0.564200000000     0          
O        O      0.619850000000     0.619850000000     0.632366666667     0          
O        O      0.544000000000     0.588000000000     0.549333333333     0          
O        O      0.628300000000     0.756550000000     0.620200000000     0          
O        O      0.656050000000     0.700200000000     0.603633333333     0          
O        O      0.669300000000     0.733350000000     0.333333333333     0          
O        O      0.714550000000     0.785450000000     0.614166666667     0          
O        O      0.500000000000     0.629700000000     0.564200000000     0          
O        O      0.500000000000     0.619850000000     0.632366666667     0          
O        O      0.956000000000     0.544000000000     0.549333333333     0          
O        O      0.871750000000     0.628300000000     0.620200000000     0          
O        O      0.955850000000     0.656050000000     0.603633333333     0          
O        O      0.935950000000     0.669300000000     0.333333333333     0          
O        O      0.929100000000     0.714550000000     0.614166666667     0          
O        O      0.870300000000     0.500000000000     0.564200000000     0          
O        O      0.880150000000     0.500000000000     0.632366666667     0          
O        O      0.912000000000     0.956000000000     0.549333333333     0          
O        O      0.743450000000     0.871750000000     0.620200000000     0          
O        O      0.799800000000     0.955850000000     0.603633333333     0          
O        O      0.766650000000     0.935950000000     0.333333333333     0          
O        O      0.714550000000     0.929100000000     0.614166666667     0          
O        O      0.870300000000     0.870300000000     0.564200000000     0          
O        O      0.880150000000     0.880150000000     0.632366666667     0          
O        O      0.956000000000     0.912000000000     0.549333333333     0          
O        O      0.799800000000     0.843950000000     0.603633333333     0          
O        O      0.955850000000     0.799800000000     0.603633333333     0          
O        O      0.656050000000     0.955850000000     0.603633333333     0          
O        O      0.700200000000     0.656050000000     0.603633333333     0          
O        O      0.544150000000     0.700200000000     0.603633333333     0          
O        O      0.843950000000     0.544150000000     0.603633333333     0          
O        O      0.656050000000     0.700200000000     0.396366666667     0          
O        O      0.955850000000     0.656050000000     0.396366666667     0          
O        O      0.799800000000     0.955850000000     0.396366666667     0          
O        O      0.843950000000     0.799800000000     0.396366666667     0          
O        O      0.544150000000     0.843950000000     0.396366666667     0          
O        O      0.700200000000     0.544150000000     0.396366666667     0          
O        O      0.756550000000     0.628300000000     0.713133333333     0          
O        O      0.700200000000     0.656050000000     0.729700000000     0          
O        O      0.733350000000     0.669300000000     0.666666666667     0          
O        O      0.785450000000     0.714550000000     0.719166666667     0          
O        O      0.629700000000     0.500000000000     0.769133333333     0          
O        O      0.619850000000     0.500000000000     0.700966666667     0          
O        O      0.544000000000     0.956000000000     0.784000000000     0          
O        O      0.603450000000     0.500000000000     0.833333333333     0          
O        O      0.544000000000     0.956000000000     0.666666666667     0          
O        O      0.628250000000     0.756550000000     0.713133333333     0          
O        O      0.544150000000     0.700200000000     0.729700000000     0          
O        O      0.564050000000     0.733350000000     0.666666666667     0          
O        O      0.570900000000     0.785450000000     0.719166666667     0          
O        O      0.629700000000     0.629700000000     0.769133333333     0          
O        O      0.619850000000     0.619850000000     0.700966666667     0          
O        O      0.588000000000     0.544000000000     0.784000000000     0          
O        O      0.603450000000     0.603450000000     0.833333333333     0          
O        O      0.588000000000     0.544000000000     0.666666666667     0          
O        O      0.871700000000     0.628250000000     0.713133333333     0          
O        O      0.843950000000     0.544150000000     0.729700000000     0          
O        O      0.830700000000     0.564050000000     0.666666666667     0          
O        O      0.785450000000     0.570900000000     0.719166666667     0          
O        O      0.500000000000     0.629700000000     0.769133333333     0          
O        O      0.500000000000     0.619850000000     0.700966666667     0          
O        O      0.544000000000     0.588000000000     0.784000000000     0          
O        O      0.500000000000     0.603450000000     0.833333333333     0          
O        O      0.544000000000     0.588000000000     0.666666666667     0          
O        O      0.743450000000     0.871700000000     0.713133333333     0          
O        O      0.799800000000     0.843950000000     0.729700000000     0          
O        O      0.766650000000     0.830700000000     0.666666666667     0          
O        O      0.714550000000     0.785450000000     0.719166666667     0          
O        O      0.870300000000     0.500000000000     0.769133333333     0          
O        O      0.880150000000     0.500000000000     0.700966666667     0          
O        O      0.956000000000     0.544000000000     0.784000000000     0          
O        O      0.896550000000     0.500000000000     0.833333333333     0          
O        O      0.956000000000     0.544000000000     0.666666666667     0          
O        O      0.871750000000     0.743450000000     0.713133333333     0          
O        O      0.955850000000     0.799800000000     0.729700000000     0          
O        O      0.935950000000     0.766650000000     0.666666666667     0          
O        O      0.929100000000     0.714550000000     0.719166666667     0          
O        O      0.870300000000     0.870300000000     0.769133333333     0          
O        O      0.880150000000     0.880150000000     0.700966666667     0          
O        O      0.912000000000     0.956000000000     0.784000000000     0          
O        O      0.896550000000     0.896550000000     0.833333333333     0          
O        O      0.912000000000     0.956000000000     0.666666666667     0          
O        O      0.628300000000     0.871750000000     0.713133333333     0          
O        O      0.656050000000     0.955850000000     0.729700000000     0          
O        O      0.669300000000     0.935950000000     0.666666666667     0          
O        O      0.714550000000     0.929100000000     0.719166666667     0          
O        O      0.500000000000     0.870300000000     0.769133333333     0          
O        O      0.500000000000     0.880150000000     0.700966666667     0          
O        O      0.956000000000     0.912000000000     0.784000000000     0          
O        O      0.500000000000     0.896550000000     0.833333333333     0          
O        O      0.956000000000     0.912000000000     0.666666666667     0          
O        O      0.871700000000     0.743450000000     0.953533333333     0          
O        O      0.843950000000     0.799800000000     0.936966666667     0          
O        O      0.830700000000     0.766650000000     0.666666666667     0          
O        O      0.785450000000     0.714550000000     0.947500000000     0          
O        O      0.500000000000     0.870300000000     0.897533333333     0          
O        O      0.500000000000     0.880150000000     0.965700000000     0          
O        O      0.544000000000     0.956000000000     0.882666666667     0          
O        O      0.628250000000     0.871700000000     0.953533333333     0          
O        O      0.544150000000     0.843950000000     0.936966666667     0          
O        O      0.564050000000     0.830700000000     0.666666666667     0          
O        O      0.570900000000     0.785450000000     0.947500000000     0          
O        O      0.629700000000     0.500000000000     0.897533333333     0          
O        O      0.619850000000     0.500000000000     0.965700000000     0          
O        O      0.588000000000     0.544000000000     0.882666666667     0          
O        O      0.756550000000     0.628250000000     0.953533333333     0          
O        O      0.700200000000     0.544150000000     0.936966666667     0          
O        O      0.733350000000     0.564050000000     0.666666666667     0          
O        O      0.785450000000     0.570900000000     0.947500000000     0          
O        O      0.629700000000     0.629700000000     0.897533333333     0          
O        O      0.619850000000     0.619850000000     0.965700000000     0          
O        O      0.544000000000     0.588000000000     0.882666666667     0          
O        O      0.628300000000     0.756550000000     0.953533333333     0          
O        O      0.656050000000     0.700200000000     0.936966666667     0          
O        O      0.669300000000     0.733350000000     0.666666666667     0          
O        O      0.714550000000     0.785450000000     0.947500000000     0          
O        O      0.500000000000     0.629700000000     0.897533333333     0          
O        O      0.500000000000     0.619850000000     0.965700000000     0          
O        O      0.956000000000     0.544000000000     0.882666666667     0          
O        O      0.871750000000     0.628300000000     0.953533333333     0          
O        O      0.955850000000     0.656050000000     0.936966666667     0          
O        O      0.935950000000     0.669300000000     0.666666666667     0          
O        O      0.929100000000     0.714550000000     0.947500000000     0          
O        O      0.870300000000     0.500000000000     0.897533333333     0          
O        O      0.880150000000     0.500000000000     0.965700000000     0          
O        O      0.912000000000     0.956000000000     0.882666666667     0          
O        O      0.743450000000     0.871750000000     0.953533333333     0          
O        O      0.799800000000     0.955850000000     0.936966666667     0          
O        O      0.766650000000     0.935950000000     0.666666666667     0          
O        O      0.714550000000     0.929100000000     0.947500000000     0          
O        O      0.870300000000     0.870300000000     0.897533333333     0          
O        O      0.880150000000     0.880150000000     0.965700000000     0          
O        O      0.956000000000     0.912000000000     0.882666666667     0          
O        O      0.799800000000     0.843950000000     0.936966666667     0          
O        O      0.955850000000     0.799800000000     0.936966666667     0          
O        O      0.656050000000     0.955850000000     0.936966666667     0          
O        O      0.700200000000     0.656050000000     0.936966666667     0          
O        O      0.544150000000     0.700200000000     0.936966666667     0          
O        O      0.843950000000     0.544150000000     0.936966666667     0          
O        O      0.656050000000     0.700200000000     0.729700000000     0          
O        O      0.955850000000     0.656050000000     0.729700000000     0          
O        O      0.799800000000     0.955850000000     0.729700000000     0          
O        O      0.843950000000     0.799800000000     0.729700000000     0          
O        O      0.544150000000     0.843950000000     0.729700000000     0          
O        O      0.700200000000     0.544150000000     0.729700000000     0          


