data_zeolite

_audit_creation_method RASPA-1.0
_audit_creation_date 2021-6-7
_audit_author_name ''

_cell_length_a    27.342
_cell_length_b    27.342
_cell_length_c    13.9854
_cell_angle_alpha 90
_cell_angle_beta  90
_cell_angle_gamma 90
_cell_volume      20910.5

_symmetry_cell_setting          tetragonal
_symmetry_space_group_name_Hall 'P 1'
_symmetry_space_group_name_H-M  'P 1'
_symmetry_Int_Tables_number     1

_symmetry_equiv_pos_as_xyz 'x,y,z'

loop_
_atom_site_label
_atom_site_type_symbol
_atom_site_fract_x
_atom_site_fract_y
_atom_site_fract_z
_atom_site_charge
T        Si     0.135300000000     0.179100000000     0.078400000000     0          
T        Si     0.031000000000     0.222400000000     0.078350000000     0          
T        Si     0.105900000000     0.106000000000     0.000000000000     0          
T        Si     0.165700000000     0.254300000000     0.000000000000     0          
T        Si     0.000000000000     0.149900000000     0.000000000000     0          
T        Si     0.062800000000     0.297100000000     0.000000000000     0          
T        Si     0.820900000000     0.135300000000     0.078400000000     0          
T        Si     0.777600000000     0.031000000000     0.078350000000     0          
T        Si     0.894000000000     0.105900000000     0.000000000000     0          
T        Si     0.745700000000     0.165700000000     0.000000000000     0          
T        Si     0.850100000000     0.000000000000     0.000000000000     0          
T        Si     0.702900000000     0.062800000000     0.000000000000     0          
T        Si     0.864700000000     0.820900000000     0.078400000000     0          
T        Si     0.969000000000     0.777600000000     0.078350000000     0          
T        Si     0.894100000000     0.894000000000     0.000000000000     0          
T        Si     0.834300000000     0.745700000000     0.000000000000     0          
T        Si     0.000000000000     0.850100000000     0.000000000000     0          
T        Si     0.937200000000     0.702900000000     0.000000000000     0          
T        Si     0.179100000000     0.864700000000     0.078400000000     0          
T        Si     0.222400000000     0.969000000000     0.078350000000     0          
T        Si     0.106000000000     0.894100000000     0.000000000000     0          
T        Si     0.254300000000     0.834300000000     0.000000000000     0          
T        Si     0.149900000000     0.000000000000     0.000000000000     0          
T        Si     0.297100000000     0.937200000000     0.000000000000     0          
T        Si     0.135300000000     0.820900000000     0.171600000000     0          
T        Si     0.031000000000     0.777600000000     0.171650000000     0          
T        Si     0.105900000000     0.894000000000     0.250000000000     0          
T        Si     0.165700000000     0.745700000000     0.250000000000     0          
T        Si     0.000000000000     0.850100000000     0.250000000000     0          
T        Si     0.062800000000     0.702900000000     0.250000000000     0          
T        Si     0.179100000000     0.135300000000     0.171600000000     0          
T        Si     0.222400000000     0.031000000000     0.171650000000     0          
T        Si     0.106000000000     0.105900000000     0.250000000000     0          
T        Si     0.254300000000     0.165700000000     0.250000000000     0          
T        Si     0.149900000000     0.000000000000     0.250000000000     0          
T        Si     0.297100000000     0.062800000000     0.250000000000     0          
T        Si     0.864700000000     0.179100000000     0.171600000000     0          
T        Si     0.969000000000     0.222400000000     0.171650000000     0          
T        Si     0.894100000000     0.106000000000     0.250000000000     0          
T        Si     0.834300000000     0.254300000000     0.250000000000     0          
T        Si     0.000000000000     0.149900000000     0.250000000000     0          
T        Si     0.937200000000     0.297100000000     0.250000000000     0          
T        Si     0.820900000000     0.864700000000     0.171600000000     0          
T        Si     0.777600000000     0.969000000000     0.171650000000     0          
T        Si     0.894000000000     0.894100000000     0.250000000000     0          
T        Si     0.745700000000     0.834300000000     0.250000000000     0          
T        Si     0.850100000000     0.000000000000     0.250000000000     0          
T        Si     0.702900000000     0.937200000000     0.250000000000     0          
T        Si     0.864700000000     0.820900000000     0.421600000000     0          
T        Si     0.969000000000     0.777600000000     0.421650000000     0          
T        Si     0.179100000000     0.864700000000     0.421600000000     0          
T        Si     0.222400000000     0.969000000000     0.421650000000     0          
T        Si     0.135300000000     0.179100000000     0.421600000000     0          
T        Si     0.031000000000     0.222400000000     0.421650000000     0          
T        Si     0.820900000000     0.135300000000     0.421600000000     0          
T        Si     0.777600000000     0.031000000000     0.421650000000     0          
T        Si     0.864700000000     0.179100000000     0.328400000000     0          
T        Si     0.969000000000     0.222400000000     0.328350000000     0          
T        Si     0.820900000000     0.864700000000     0.328400000000     0          
T        Si     0.777600000000     0.969000000000     0.328350000000     0          
T        Si     0.135300000000     0.820900000000     0.328400000000     0          
T        Si     0.031000000000     0.777600000000     0.328350000000     0          
T        Si     0.179100000000     0.135300000000     0.328400000000     0          
T        Si     0.222400000000     0.031000000000     0.328350000000     0          
T        Si     0.635300000000     0.679100000000     0.328400000000     0          
T        Si     0.531000000000     0.722400000000     0.328350000000     0          
T        Si     0.605900000000     0.606000000000     0.250000000000     0          
T        Si     0.665700000000     0.754300000000     0.250000000000     0          
T        Si     0.500000000000     0.649900000000     0.250000000000     0          
T        Si     0.562800000000     0.797100000000     0.250000000000     0          
T        Si     0.320900000000     0.635300000000     0.328400000000     0          
T        Si     0.277600000000     0.531000000000     0.328350000000     0          
T        Si     0.394000000000     0.605900000000     0.250000000000     0          
T        Si     0.245700000000     0.665700000000     0.250000000000     0          
T        Si     0.350100000000     0.500000000000     0.250000000000     0          
T        Si     0.202900000000     0.562800000000     0.250000000000     0          
T        Si     0.364700000000     0.320900000000     0.328400000000     0          
T        Si     0.469000000000     0.277600000000     0.328350000000     0          
T        Si     0.394100000000     0.394000000000     0.250000000000     0          
T        Si     0.334300000000     0.245700000000     0.250000000000     0          
T        Si     0.500000000000     0.350100000000     0.250000000000     0          
T        Si     0.437200000000     0.202900000000     0.250000000000     0          
T        Si     0.679100000000     0.364700000000     0.328400000000     0          
T        Si     0.722400000000     0.469000000000     0.328350000000     0          
T        Si     0.606000000000     0.394100000000     0.250000000000     0          
T        Si     0.754300000000     0.334300000000     0.250000000000     0          
T        Si     0.649900000000     0.500000000000     0.250000000000     0          
T        Si     0.797100000000     0.437200000000     0.250000000000     0          
T        Si     0.635300000000     0.320900000000     0.421600000000     0          
T        Si     0.531000000000     0.277600000000     0.421650000000     0          
T        Si     0.605900000000     0.394000000000     0.000000000000     0          
T        Si     0.665700000000     0.245700000000     0.000000000000     0          
T        Si     0.500000000000     0.350100000000     0.000000000000     0          
T        Si     0.562800000000     0.202900000000     0.000000000000     0          
T        Si     0.679100000000     0.635300000000     0.421600000000     0          
T        Si     0.722400000000     0.531000000000     0.421650000000     0          
T        Si     0.606000000000     0.605900000000     0.000000000000     0          
T        Si     0.754300000000     0.665700000000     0.000000000000     0          
T        Si     0.649900000000     0.500000000000     0.000000000000     0          
T        Si     0.797100000000     0.562800000000     0.000000000000     0          
T        Si     0.364700000000     0.679100000000     0.421600000000     0          
T        Si     0.469000000000     0.722400000000     0.421650000000     0          
T        Si     0.394100000000     0.606000000000     0.000000000000     0          
T        Si     0.334300000000     0.754300000000     0.000000000000     0          
T        Si     0.500000000000     0.649900000000     0.000000000000     0          
T        Si     0.437200000000     0.797100000000     0.000000000000     0          
T        Si     0.320900000000     0.364700000000     0.421600000000     0          
T        Si     0.277600000000     0.469000000000     0.421650000000     0          
T        Si     0.394000000000     0.394100000000     0.000000000000     0          
T        Si     0.245700000000     0.334300000000     0.000000000000     0          
T        Si     0.350100000000     0.500000000000     0.000000000000     0          
T        Si     0.202900000000     0.437200000000     0.000000000000     0          
T        Si     0.364700000000     0.320900000000     0.171600000000     0          
T        Si     0.469000000000     0.277600000000     0.171650000000     0          
T        Si     0.679100000000     0.364700000000     0.171600000000     0          
T        Si     0.722400000000     0.469000000000     0.171650000000     0          
T        Si     0.635300000000     0.679100000000     0.171600000000     0          
T        Si     0.531000000000     0.722400000000     0.171650000000     0          
T        Si     0.320900000000     0.635300000000     0.171600000000     0          
T        Si     0.277600000000     0.531000000000     0.171650000000     0          
T        Si     0.364700000000     0.679100000000     0.078400000000     0          
T        Si     0.469000000000     0.722400000000     0.078350000000     0          
T        Si     0.320900000000     0.364700000000     0.078400000000     0          
T        Si     0.277600000000     0.469000000000     0.078350000000     0          
T        Si     0.635300000000     0.320900000000     0.078400000000     0          
T        Si     0.531000000000     0.277600000000     0.078350000000     0          
T        Si     0.679100000000     0.635300000000     0.078400000000     0          
T        Si     0.722400000000     0.531000000000     0.078350000000     0          
T        Si     0.135300000000     0.179100000000     0.578400000000     0          
T        Si     0.031000000000     0.222400000000     0.578350000000     0          
T        Si     0.105900000000     0.106000000000     0.500000000000     0          
T        Si     0.165700000000     0.254300000000     0.500000000000     0          
T        Si     0.000000000000     0.149900000000     0.500000000000     0          
T        Si     0.062800000000     0.297100000000     0.500000000000     0          
T        Si     0.820900000000     0.135300000000     0.578400000000     0          
T        Si     0.777600000000     0.031000000000     0.578350000000     0          
T        Si     0.894000000000     0.105900000000     0.500000000000     0          
T        Si     0.745700000000     0.165700000000     0.500000000000     0          
T        Si     0.850100000000     0.000000000000     0.500000000000     0          
T        Si     0.702900000000     0.062800000000     0.500000000000     0          
T        Si     0.864700000000     0.820900000000     0.578400000000     0          
T        Si     0.969000000000     0.777600000000     0.578350000000     0          
T        Si     0.894100000000     0.894000000000     0.500000000000     0          
T        Si     0.834300000000     0.745700000000     0.500000000000     0          
T        Si     0.000000000000     0.850100000000     0.500000000000     0          
T        Si     0.937200000000     0.702900000000     0.500000000000     0          
T        Si     0.179100000000     0.864700000000     0.578400000000     0          
T        Si     0.222400000000     0.969000000000     0.578350000000     0          
T        Si     0.106000000000     0.894100000000     0.500000000000     0          
T        Si     0.254300000000     0.834300000000     0.500000000000     0          
T        Si     0.149900000000     0.000000000000     0.500000000000     0          
T        Si     0.297100000000     0.937200000000     0.500000000000     0          
T        Si     0.135300000000     0.820900000000     0.671600000000     0          
T        Si     0.031000000000     0.777600000000     0.671650000000     0          
T        Si     0.105900000000     0.894000000000     0.750000000000     0          
T        Si     0.165700000000     0.745700000000     0.750000000000     0          
T        Si     0.000000000000     0.850100000000     0.750000000000     0          
T        Si     0.062800000000     0.702900000000     0.750000000000     0          
T        Si     0.179100000000     0.135300000000     0.671600000000     0          
T        Si     0.222400000000     0.031000000000     0.671650000000     0          
T        Si     0.106000000000     0.105900000000     0.750000000000     0          
T        Si     0.254300000000     0.165700000000     0.750000000000     0          
T        Si     0.149900000000     0.000000000000     0.750000000000     0          
T        Si     0.297100000000     0.062800000000     0.750000000000     0          
T        Si     0.864700000000     0.179100000000     0.671600000000     0          
T        Si     0.969000000000     0.222400000000     0.671650000000     0          
T        Si     0.894100000000     0.106000000000     0.750000000000     0          
T        Si     0.834300000000     0.254300000000     0.750000000000     0          
T        Si     0.000000000000     0.149900000000     0.750000000000     0          
T        Si     0.937200000000     0.297100000000     0.750000000000     0          
T        Si     0.820900000000     0.864700000000     0.671600000000     0          
T        Si     0.777600000000     0.969000000000     0.671650000000     0          
T        Si     0.894000000000     0.894100000000     0.750000000000     0          
T        Si     0.745700000000     0.834300000000     0.750000000000     0          
T        Si     0.850100000000     0.000000000000     0.750000000000     0          
T        Si     0.702900000000     0.937200000000     0.750000000000     0          
T        Si     0.864700000000     0.820900000000     0.921600000000     0          
T        Si     0.969000000000     0.777600000000     0.921650000000     0          
T        Si     0.179100000000     0.864700000000     0.921600000000     0          
T        Si     0.222400000000     0.969000000000     0.921650000000     0          
T        Si     0.135300000000     0.179100000000     0.921600000000     0          
T        Si     0.031000000000     0.222400000000     0.921650000000     0          
T        Si     0.820900000000     0.135300000000     0.921600000000     0          
T        Si     0.777600000000     0.031000000000     0.921650000000     0          
T        Si     0.864700000000     0.179100000000     0.828400000000     0          
T        Si     0.969000000000     0.222400000000     0.828350000000     0          
T        Si     0.820900000000     0.864700000000     0.828400000000     0          
T        Si     0.777600000000     0.969000000000     0.828350000000     0          
T        Si     0.135300000000     0.820900000000     0.828400000000     0          
T        Si     0.031000000000     0.777600000000     0.828350000000     0          
T        Si     0.179100000000     0.135300000000     0.828400000000     0          
T        Si     0.222400000000     0.031000000000     0.828350000000     0          
T        Si     0.635300000000     0.679100000000     0.828400000000     0          
T        Si     0.531000000000     0.722400000000     0.828350000000     0          
T        Si     0.605900000000     0.606000000000     0.750000000000     0          
T        Si     0.665700000000     0.754300000000     0.750000000000     0          
T        Si     0.500000000000     0.649900000000     0.750000000000     0          
T        Si     0.562800000000     0.797100000000     0.750000000000     0          
T        Si     0.320900000000     0.635300000000     0.828400000000     0          
T        Si     0.277600000000     0.531000000000     0.828350000000     0          
T        Si     0.394000000000     0.605900000000     0.750000000000     0          
T        Si     0.245700000000     0.665700000000     0.750000000000     0          
T        Si     0.350100000000     0.500000000000     0.750000000000     0          
T        Si     0.202900000000     0.562800000000     0.750000000000     0          
T        Si     0.364700000000     0.320900000000     0.828400000000     0          
T        Si     0.469000000000     0.277600000000     0.828350000000     0          
T        Si     0.394100000000     0.394000000000     0.750000000000     0          
T        Si     0.334300000000     0.245700000000     0.750000000000     0          
T        Si     0.500000000000     0.350100000000     0.750000000000     0          
T        Si     0.437200000000     0.202900000000     0.750000000000     0          
T        Si     0.679100000000     0.364700000000     0.828400000000     0          
T        Si     0.722400000000     0.469000000000     0.828350000000     0          
T        Si     0.606000000000     0.394100000000     0.750000000000     0          
T        Si     0.754300000000     0.334300000000     0.750000000000     0          
T        Si     0.649900000000     0.500000000000     0.750000000000     0          
T        Si     0.797100000000     0.437200000000     0.750000000000     0          
T        Si     0.635300000000     0.320900000000     0.921600000000     0          
T        Si     0.531000000000     0.277600000000     0.921650000000     0          
T        Si     0.605900000000     0.394000000000     0.500000000000     0          
T        Si     0.665700000000     0.245700000000     0.500000000000     0          
T        Si     0.500000000000     0.350100000000     0.500000000000     0          
T        Si     0.562800000000     0.202900000000     0.500000000000     0          
T        Si     0.679100000000     0.635300000000     0.921600000000     0          
T        Si     0.722400000000     0.531000000000     0.921650000000     0          
T        Si     0.606000000000     0.605900000000     0.500000000000     0          
T        Si     0.754300000000     0.665700000000     0.500000000000     0          
T        Si     0.649900000000     0.500000000000     0.500000000000     0          
T        Si     0.797100000000     0.562800000000     0.500000000000     0          
T        Si     0.364700000000     0.679100000000     0.921600000000     0          
T        Si     0.469000000000     0.722400000000     0.921650000000     0          
T        Si     0.394100000000     0.606000000000     0.500000000000     0          
T        Si     0.334300000000     0.754300000000     0.500000000000     0          
T        Si     0.500000000000     0.649900000000     0.500000000000     0          
T        Si     0.437200000000     0.797100000000     0.500000000000     0          
T        Si     0.320900000000     0.364700000000     0.921600000000     0          
T        Si     0.277600000000     0.469000000000     0.921650000000     0          
T        Si     0.394000000000     0.394100000000     0.500000000000     0          
T        Si     0.245700000000     0.334300000000     0.500000000000     0          
T        Si     0.350100000000     0.500000000000     0.500000000000     0          
T        Si     0.202900000000     0.437200000000     0.500000000000     0          
T        Si     0.364700000000     0.320900000000     0.671600000000     0          
T        Si     0.469000000000     0.277600000000     0.671650000000     0          
T        Si     0.679100000000     0.364700000000     0.671600000000     0          
T        Si     0.722400000000     0.469000000000     0.671650000000     0          
T        Si     0.635300000000     0.679100000000     0.671600000000     0          
T        Si     0.531000000000     0.722400000000     0.671650000000     0          
T        Si     0.320900000000     0.635300000000     0.671600000000     0          
T        Si     0.277600000000     0.531000000000     0.671650000000     0          
T        Si     0.364700000000     0.679100000000     0.578400000000     0          
T        Si     0.469000000000     0.722400000000     0.578350000000     0          
T        Si     0.320900000000     0.364700000000     0.578400000000     0          
T        Si     0.277600000000     0.469000000000     0.578350000000     0          
T        Si     0.635300000000     0.320900000000     0.578400000000     0          
T        Si     0.531000000000     0.277600000000     0.578350000000     0          
T        Si     0.679100000000     0.635300000000     0.578400000000     0          
T        Si     0.722400000000     0.531000000000     0.578350000000     0          
O        O      0.129800000000     0.130100000000     0.047050000000     0          
O        O      0.000000000000     0.237600000000     0.125000000000     0          
O        O      0.000200000000     0.183900000000     0.047000000000     0          
O        O      0.041500000000     0.270700000000     0.047000000000     0          
O        O      0.162000000000     0.220600000000     0.047000000000     0          
O        O      0.082000000000     0.198100000000     0.094450000000     0          
O        O      0.217300000000     0.282700000000     0.000000000000     0          
O        O      0.047900000000     0.115500000000     0.000000000000     0          
O        O      0.115900000000     0.048000000000     0.000000000000     0          
O        O      0.167900000000     0.167900000000     0.125000000000     0          
O        O      0.121600000000     0.293300000000     0.000000000000     0          
O        O      0.046800000000     0.353700000000     0.000000000000     0          
O        O      0.869900000000     0.129800000000     0.047050000000     0          
O        O      0.762400000000     0.000000000000     0.125000000000     0          
O        O      0.816100000000     0.000200000000     0.047000000000     0          
O        O      0.729300000000     0.041500000000     0.047000000000     0          
O        O      0.779400000000     0.162000000000     0.047000000000     0          
O        O      0.801900000000     0.082000000000     0.094450000000     0          
O        O      0.717300000000     0.217300000000     0.000000000000     0          
O        O      0.884500000000     0.047900000000     0.000000000000     0          
O        O      0.952000000000     0.115900000000     0.000000000000     0          
O        O      0.832100000000     0.167900000000     0.125000000000     0          
O        O      0.706700000000     0.121600000000     0.000000000000     0          
O        O      0.646300000000     0.046800000000     0.000000000000     0          
O        O      0.870200000000     0.869900000000     0.047050000000     0          
O        O      0.000000000000     0.762400000000     0.125000000000     0          
O        O      0.999800000000     0.816100000000     0.047000000000     0          
O        O      0.958500000000     0.729300000000     0.047000000000     0          
O        O      0.838000000000     0.779400000000     0.047000000000     0          
O        O      0.918000000000     0.801900000000     0.094450000000     0          
O        O      0.782700000000     0.717300000000     0.000000000000     0          
O        O      0.952100000000     0.884500000000     0.000000000000     0          
O        O      0.884100000000     0.952000000000     0.000000000000     0          
O        O      0.832100000000     0.832100000000     0.125000000000     0          
O        O      0.878400000000     0.706700000000     0.000000000000     0          
O        O      0.953200000000     0.646300000000     0.000000000000     0          
O        O      0.130100000000     0.870200000000     0.047050000000     0          
O        O      0.237600000000     0.000000000000     0.125000000000     0          
O        O      0.183900000000     0.999800000000     0.047000000000     0          
O        O      0.270700000000     0.958500000000     0.047000000000     0          
O        O      0.220600000000     0.838000000000     0.047000000000     0          
O        O      0.198100000000     0.918000000000     0.094450000000     0          
O        O      0.282700000000     0.782700000000     0.000000000000     0          
O        O      0.115500000000     0.952100000000     0.000000000000     0          
O        O      0.048000000000     0.884100000000     0.000000000000     0          
O        O      0.167900000000     0.832100000000     0.125000000000     0          
O        O      0.293300000000     0.878400000000     0.000000000000     0          
O        O      0.353700000000     0.953200000000     0.000000000000     0          
O        O      0.129800000000     0.869900000000     0.202950000000     0          
O        O      0.000200000000     0.816100000000     0.203000000000     0          
O        O      0.041500000000     0.729300000000     0.203000000000     0          
O        O      0.162000000000     0.779400000000     0.203000000000     0          
O        O      0.082000000000     0.801900000000     0.155550000000     0          
O        O      0.217300000000     0.717300000000     0.250000000000     0          
O        O      0.047900000000     0.884500000000     0.250000000000     0          
O        O      0.115900000000     0.952000000000     0.250000000000     0          
O        O      0.121600000000     0.706700000000     0.250000000000     0          
O        O      0.046800000000     0.646300000000     0.250000000000     0          
O        O      0.130100000000     0.129800000000     0.202950000000     0          
O        O      0.183900000000     0.000200000000     0.203000000000     0          
O        O      0.270700000000     0.041500000000     0.203000000000     0          
O        O      0.220600000000     0.162000000000     0.203000000000     0          
O        O      0.198100000000     0.082000000000     0.155550000000     0          
O        O      0.282700000000     0.217300000000     0.250000000000     0          
O        O      0.115500000000     0.047900000000     0.250000000000     0          
O        O      0.048000000000     0.115900000000     0.250000000000     0          
O        O      0.293300000000     0.121600000000     0.250000000000     0          
O        O      0.353700000000     0.046800000000     0.250000000000     0          
O        O      0.870200000000     0.130100000000     0.202950000000     0          
O        O      0.999800000000     0.183900000000     0.203000000000     0          
O        O      0.958500000000     0.270700000000     0.203000000000     0          
O        O      0.838000000000     0.220600000000     0.203000000000     0          
O        O      0.918000000000     0.198100000000     0.155550000000     0          
O        O      0.782700000000     0.282700000000     0.250000000000     0          
O        O      0.952100000000     0.115500000000     0.250000000000     0          
O        O      0.884100000000     0.048000000000     0.250000000000     0          
O        O      0.878400000000     0.293300000000     0.250000000000     0          
O        O      0.953200000000     0.353700000000     0.250000000000     0          
O        O      0.869900000000     0.870200000000     0.202950000000     0          
O        O      0.816100000000     0.999800000000     0.203000000000     0          
O        O      0.729300000000     0.958500000000     0.203000000000     0          
O        O      0.779400000000     0.838000000000     0.203000000000     0          
O        O      0.801900000000     0.918000000000     0.155550000000     0          
O        O      0.717300000000     0.782700000000     0.250000000000     0          
O        O      0.884500000000     0.952100000000     0.250000000000     0          
O        O      0.952000000000     0.884100000000     0.250000000000     0          
O        O      0.706700000000     0.878400000000     0.250000000000     0          
O        O      0.646300000000     0.953200000000     0.250000000000     0          
O        O      0.870200000000     0.869900000000     0.452950000000     0          
O        O      0.000000000000     0.762400000000     0.375000000000     0          
O        O      0.999800000000     0.816100000000     0.453000000000     0          
O        O      0.958500000000     0.729300000000     0.453000000000     0          
O        O      0.838000000000     0.779400000000     0.453000000000     0          
O        O      0.918000000000     0.801900000000     0.405550000000     0          
O        O      0.832100000000     0.832100000000     0.375000000000     0          
O        O      0.130100000000     0.870200000000     0.452950000000     0          
O        O      0.237600000000     0.000000000000     0.375000000000     0          
O        O      0.183900000000     0.999800000000     0.453000000000     0          
O        O      0.270700000000     0.958500000000     0.453000000000     0          
O        O      0.220600000000     0.838000000000     0.453000000000     0          
O        O      0.198100000000     0.918000000000     0.405550000000     0          
O        O      0.167900000000     0.832100000000     0.375000000000     0          
O        O      0.129800000000     0.130100000000     0.452950000000     0          
O        O      0.000000000000     0.237600000000     0.375000000000     0          
O        O      0.000200000000     0.183900000000     0.453000000000     0          
O        O      0.041500000000     0.270700000000     0.453000000000     0          
O        O      0.162000000000     0.220600000000     0.453000000000     0          
O        O      0.082000000000     0.198100000000     0.405550000000     0          
O        O      0.167900000000     0.167900000000     0.375000000000     0          
O        O      0.869900000000     0.129800000000     0.452950000000     0          
O        O      0.762400000000     0.000000000000     0.375000000000     0          
O        O      0.816100000000     0.000200000000     0.453000000000     0          
O        O      0.729300000000     0.041500000000     0.453000000000     0          
O        O      0.779400000000     0.162000000000     0.453000000000     0          
O        O      0.801900000000     0.082000000000     0.405550000000     0          
O        O      0.832100000000     0.167900000000     0.375000000000     0          
O        O      0.870200000000     0.130100000000     0.297050000000     0          
O        O      0.999800000000     0.183900000000     0.297000000000     0          
O        O      0.958500000000     0.270700000000     0.297000000000     0          
O        O      0.838000000000     0.220600000000     0.297000000000     0          
O        O      0.918000000000     0.198100000000     0.344450000000     0          
O        O      0.869900000000     0.870200000000     0.297050000000     0          
O        O      0.816100000000     0.999800000000     0.297000000000     0          
O        O      0.729300000000     0.958500000000     0.297000000000     0          
O        O      0.779400000000     0.838000000000     0.297000000000     0          
O        O      0.801900000000     0.918000000000     0.344450000000     0          
O        O      0.129800000000     0.869900000000     0.297050000000     0          
O        O      0.000200000000     0.816100000000     0.297000000000     0          
O        O      0.041500000000     0.729300000000     0.297000000000     0          
O        O      0.162000000000     0.779400000000     0.297000000000     0          
O        O      0.082000000000     0.801900000000     0.344450000000     0          
O        O      0.130100000000     0.129800000000     0.297050000000     0          
O        O      0.183900000000     0.000200000000     0.297000000000     0          
O        O      0.270700000000     0.041500000000     0.297000000000     0          
O        O      0.220600000000     0.162000000000     0.297000000000     0          
O        O      0.198100000000     0.082000000000     0.344450000000     0          
O        O      0.629800000000     0.630100000000     0.297050000000     0          
O        O      0.500000000000     0.737600000000     0.375000000000     0          
O        O      0.500200000000     0.683900000000     0.297000000000     0          
O        O      0.541500000000     0.770700000000     0.297000000000     0          
O        O      0.662000000000     0.720600000000     0.297000000000     0          
O        O      0.582000000000     0.698100000000     0.344450000000     0          
O        O      0.547900000000     0.615500000000     0.250000000000     0          
O        O      0.615900000000     0.548000000000     0.250000000000     0          
O        O      0.667900000000     0.667900000000     0.375000000000     0          
O        O      0.621600000000     0.793300000000     0.250000000000     0          
O        O      0.546800000000     0.853700000000     0.250000000000     0          
O        O      0.369900000000     0.629800000000     0.297050000000     0          
O        O      0.262400000000     0.500000000000     0.375000000000     0          
O        O      0.316100000000     0.500200000000     0.297000000000     0          
O        O      0.229300000000     0.541500000000     0.297000000000     0          
O        O      0.279400000000     0.662000000000     0.297000000000     0          
O        O      0.301900000000     0.582000000000     0.344450000000     0          
O        O      0.384500000000     0.547900000000     0.250000000000     0          
O        O      0.452000000000     0.615900000000     0.250000000000     0          
O        O      0.332100000000     0.667900000000     0.375000000000     0          
O        O      0.206700000000     0.621600000000     0.250000000000     0          
O        O      0.146300000000     0.546800000000     0.250000000000     0          
O        O      0.370200000000     0.369900000000     0.297050000000     0          
O        O      0.500000000000     0.262400000000     0.375000000000     0          
O        O      0.499800000000     0.316100000000     0.297000000000     0          
O        O      0.458500000000     0.229300000000     0.297000000000     0          
O        O      0.338000000000     0.279400000000     0.297000000000     0          
O        O      0.418000000000     0.301900000000     0.344450000000     0          
O        O      0.452100000000     0.384500000000     0.250000000000     0          
O        O      0.384100000000     0.452000000000     0.250000000000     0          
O        O      0.332100000000     0.332100000000     0.375000000000     0          
O        O      0.378400000000     0.206700000000     0.250000000000     0          
O        O      0.453200000000     0.146300000000     0.250000000000     0          
O        O      0.630100000000     0.370200000000     0.297050000000     0          
O        O      0.737600000000     0.500000000000     0.375000000000     0          
O        O      0.683900000000     0.499800000000     0.297000000000     0          
O        O      0.770700000000     0.458500000000     0.297000000000     0          
O        O      0.720600000000     0.338000000000     0.297000000000     0          
O        O      0.698100000000     0.418000000000     0.344450000000     0          
O        O      0.615500000000     0.452100000000     0.250000000000     0          
O        O      0.548000000000     0.384100000000     0.250000000000     0          
O        O      0.667900000000     0.332100000000     0.375000000000     0          
O        O      0.793300000000     0.378400000000     0.250000000000     0          
O        O      0.853700000000     0.453200000000     0.250000000000     0          
O        O      0.629800000000     0.369900000000     0.452950000000     0          
O        O      0.500200000000     0.316100000000     0.453000000000     0          
O        O      0.541500000000     0.229300000000     0.453000000000     0          
O        O      0.662000000000     0.279400000000     0.453000000000     0          
O        O      0.582000000000     0.301900000000     0.405550000000     0          
O        O      0.547900000000     0.384500000000     0.000000000000     0          
O        O      0.615900000000     0.452000000000     0.000000000000     0          
O        O      0.621600000000     0.206700000000     0.000000000000     0          
O        O      0.546800000000     0.146300000000     0.000000000000     0          
O        O      0.630100000000     0.629800000000     0.452950000000     0          
O        O      0.683900000000     0.500200000000     0.453000000000     0          
O        O      0.770700000000     0.541500000000     0.453000000000     0          
O        O      0.720600000000     0.662000000000     0.453000000000     0          
O        O      0.698100000000     0.582000000000     0.405550000000     0          
O        O      0.615500000000     0.547900000000     0.000000000000     0          
O        O      0.548000000000     0.615900000000     0.000000000000     0          
O        O      0.793300000000     0.621600000000     0.000000000000     0          
O        O      0.853700000000     0.546800000000     0.000000000000     0          
O        O      0.370200000000     0.630100000000     0.452950000000     0          
O        O      0.499800000000     0.683900000000     0.453000000000     0          
O        O      0.458500000000     0.770700000000     0.453000000000     0          
O        O      0.338000000000     0.720600000000     0.453000000000     0          
O        O      0.418000000000     0.698100000000     0.405550000000     0          
O        O      0.452100000000     0.615500000000     0.000000000000     0          
O        O      0.384100000000     0.548000000000     0.000000000000     0          
O        O      0.378400000000     0.793300000000     0.000000000000     0          
O        O      0.453200000000     0.853700000000     0.000000000000     0          
O        O      0.369900000000     0.370200000000     0.452950000000     0          
O        O      0.316100000000     0.499800000000     0.453000000000     0          
O        O      0.229300000000     0.458500000000     0.453000000000     0          
O        O      0.279400000000     0.338000000000     0.453000000000     0          
O        O      0.301900000000     0.418000000000     0.405550000000     0          
O        O      0.384500000000     0.452100000000     0.000000000000     0          
O        O      0.452000000000     0.384100000000     0.000000000000     0          
O        O      0.206700000000     0.378400000000     0.000000000000     0          
O        O      0.146300000000     0.453200000000     0.000000000000     0          
O        O      0.370200000000     0.369900000000     0.202950000000     0          
O        O      0.500000000000     0.262400000000     0.125000000000     0          
O        O      0.499800000000     0.316100000000     0.203000000000     0          
O        O      0.458500000000     0.229300000000     0.203000000000     0          
O        O      0.338000000000     0.279400000000     0.203000000000     0          
O        O      0.418000000000     0.301900000000     0.155550000000     0          
O        O      0.332100000000     0.332100000000     0.125000000000     0          
O        O      0.630100000000     0.370200000000     0.202950000000     0          
O        O      0.737600000000     0.500000000000     0.125000000000     0          
O        O      0.683900000000     0.499800000000     0.203000000000     0          
O        O      0.770700000000     0.458500000000     0.203000000000     0          
O        O      0.720600000000     0.338000000000     0.203000000000     0          
O        O      0.698100000000     0.418000000000     0.155550000000     0          
O        O      0.667900000000     0.332100000000     0.125000000000     0          
O        O      0.629800000000     0.630100000000     0.202950000000     0          
O        O      0.500000000000     0.737600000000     0.125000000000     0          
O        O      0.500200000000     0.683900000000     0.203000000000     0          
O        O      0.541500000000     0.770700000000     0.203000000000     0          
O        O      0.662000000000     0.720600000000     0.203000000000     0          
O        O      0.582000000000     0.698100000000     0.155550000000     0          
O        O      0.667900000000     0.667900000000     0.125000000000     0          
O        O      0.369900000000     0.629800000000     0.202950000000     0          
O        O      0.262400000000     0.500000000000     0.125000000000     0          
O        O      0.316100000000     0.500200000000     0.203000000000     0          
O        O      0.229300000000     0.541500000000     0.203000000000     0          
O        O      0.279400000000     0.662000000000     0.203000000000     0          
O        O      0.301900000000     0.582000000000     0.155550000000     0          
O        O      0.332100000000     0.667900000000     0.125000000000     0          
O        O      0.370200000000     0.630100000000     0.047050000000     0          
O        O      0.499800000000     0.683900000000     0.047000000000     0          
O        O      0.458500000000     0.770700000000     0.047000000000     0          
O        O      0.338000000000     0.720600000000     0.047000000000     0          
O        O      0.418000000000     0.698100000000     0.094450000000     0          
O        O      0.369900000000     0.370200000000     0.047050000000     0          
O        O      0.316100000000     0.499800000000     0.047000000000     0          
O        O      0.229300000000     0.458500000000     0.047000000000     0          
O        O      0.279400000000     0.338000000000     0.047000000000     0          
O        O      0.301900000000     0.418000000000     0.094450000000     0          
O        O      0.629800000000     0.369900000000     0.047050000000     0          
O        O      0.500200000000     0.316100000000     0.047000000000     0          
O        O      0.541500000000     0.229300000000     0.047000000000     0          
O        O      0.662000000000     0.279400000000     0.047000000000     0          
O        O      0.582000000000     0.301900000000     0.094450000000     0          
O        O      0.630100000000     0.629800000000     0.047050000000     0          
O        O      0.683900000000     0.500200000000     0.047000000000     0          
O        O      0.770700000000     0.541500000000     0.047000000000     0          
O        O      0.720600000000     0.662000000000     0.047000000000     0          
O        O      0.698100000000     0.582000000000     0.094450000000     0          
O        O      0.129800000000     0.130100000000     0.547050000000     0          
O        O      0.000000000000     0.237600000000     0.625000000000     0          
O        O      0.000200000000     0.183900000000     0.547000000000     0          
O        O      0.041500000000     0.270700000000     0.547000000000     0          
O        O      0.162000000000     0.220600000000     0.547000000000     0          
O        O      0.082000000000     0.198100000000     0.594450000000     0          
O        O      0.217300000000     0.282700000000     0.500000000000     0          
O        O      0.047900000000     0.115500000000     0.500000000000     0          
O        O      0.115900000000     0.048000000000     0.500000000000     0          
O        O      0.167900000000     0.167900000000     0.625000000000     0          
O        O      0.121600000000     0.293300000000     0.500000000000     0          
O        O      0.046800000000     0.353700000000     0.500000000000     0          
O        O      0.869900000000     0.129800000000     0.547050000000     0          
O        O      0.762400000000     0.000000000000     0.625000000000     0          
O        O      0.816100000000     0.000200000000     0.547000000000     0          
O        O      0.729300000000     0.041500000000     0.547000000000     0          
O        O      0.779400000000     0.162000000000     0.547000000000     0          
O        O      0.801900000000     0.082000000000     0.594450000000     0          
O        O      0.717300000000     0.217300000000     0.500000000000     0          
O        O      0.884500000000     0.047900000000     0.500000000000     0          
O        O      0.952000000000     0.115900000000     0.500000000000     0          
O        O      0.832100000000     0.167900000000     0.625000000000     0          
O        O      0.706700000000     0.121600000000     0.500000000000     0          
O        O      0.646300000000     0.046800000000     0.500000000000     0          
O        O      0.870200000000     0.869900000000     0.547050000000     0          
O        O      0.000000000000     0.762400000000     0.625000000000     0          
O        O      0.999800000000     0.816100000000     0.547000000000     0          
O        O      0.958500000000     0.729300000000     0.547000000000     0          
O        O      0.838000000000     0.779400000000     0.547000000000     0          
O        O      0.918000000000     0.801900000000     0.594450000000     0          
O        O      0.782700000000     0.717300000000     0.500000000000     0          
O        O      0.952100000000     0.884500000000     0.500000000000     0          
O        O      0.884100000000     0.952000000000     0.500000000000     0          
O        O      0.832100000000     0.832100000000     0.625000000000     0          
O        O      0.878400000000     0.706700000000     0.500000000000     0          
O        O      0.953200000000     0.646300000000     0.500000000000     0          
O        O      0.130100000000     0.870200000000     0.547050000000     0          
O        O      0.237600000000     0.000000000000     0.625000000000     0          
O        O      0.183900000000     0.999800000000     0.547000000000     0          
O        O      0.270700000000     0.958500000000     0.547000000000     0          
O        O      0.220600000000     0.838000000000     0.547000000000     0          
O        O      0.198100000000     0.918000000000     0.594450000000     0          
O        O      0.282700000000     0.782700000000     0.500000000000     0          
O        O      0.115500000000     0.952100000000     0.500000000000     0          
O        O      0.048000000000     0.884100000000     0.500000000000     0          
O        O      0.167900000000     0.832100000000     0.625000000000     0          
O        O      0.293300000000     0.878400000000     0.500000000000     0          
O        O      0.353700000000     0.953200000000     0.500000000000     0          
O        O      0.129800000000     0.869900000000     0.702950000000     0          
O        O      0.000200000000     0.816100000000     0.703000000000     0          
O        O      0.041500000000     0.729300000000     0.703000000000     0          
O        O      0.162000000000     0.779400000000     0.703000000000     0          
O        O      0.082000000000     0.801900000000     0.655550000000     0          
O        O      0.217300000000     0.717300000000     0.750000000000     0          
O        O      0.047900000000     0.884500000000     0.750000000000     0          
O        O      0.115900000000     0.952000000000     0.750000000000     0          
O        O      0.121600000000     0.706700000000     0.750000000000     0          
O        O      0.046800000000     0.646300000000     0.750000000000     0          
O        O      0.130100000000     0.129800000000     0.702950000000     0          
O        O      0.183900000000     0.000200000000     0.703000000000     0          
O        O      0.270700000000     0.041500000000     0.703000000000     0          
O        O      0.220600000000     0.162000000000     0.703000000000     0          
O        O      0.198100000000     0.082000000000     0.655550000000     0          
O        O      0.282700000000     0.217300000000     0.750000000000     0          
O        O      0.115500000000     0.047900000000     0.750000000000     0          
O        O      0.048000000000     0.115900000000     0.750000000000     0          
O        O      0.293300000000     0.121600000000     0.750000000000     0          
O        O      0.353700000000     0.046800000000     0.750000000000     0          
O        O      0.870200000000     0.130100000000     0.702950000000     0          
O        O      0.999800000000     0.183900000000     0.703000000000     0          
O        O      0.958500000000     0.270700000000     0.703000000000     0          
O        O      0.838000000000     0.220600000000     0.703000000000     0          
O        O      0.918000000000     0.198100000000     0.655550000000     0          
O        O      0.782700000000     0.282700000000     0.750000000000     0          
O        O      0.952100000000     0.115500000000     0.750000000000     0          
O        O      0.884100000000     0.048000000000     0.750000000000     0          
O        O      0.878400000000     0.293300000000     0.750000000000     0          
O        O      0.953200000000     0.353700000000     0.750000000000     0          
O        O      0.869900000000     0.870200000000     0.702950000000     0          
O        O      0.816100000000     0.999800000000     0.703000000000     0          
O        O      0.729300000000     0.958500000000     0.703000000000     0          
O        O      0.779400000000     0.838000000000     0.703000000000     0          
O        O      0.801900000000     0.918000000000     0.655550000000     0          
O        O      0.717300000000     0.782700000000     0.750000000000     0          
O        O      0.884500000000     0.952100000000     0.750000000000     0          
O        O      0.952000000000     0.884100000000     0.750000000000     0          
O        O      0.706700000000     0.878400000000     0.750000000000     0          
O        O      0.646300000000     0.953200000000     0.750000000000     0          
O        O      0.870200000000     0.869900000000     0.952950000000     0          
O        O      0.000000000000     0.762400000000     0.875000000000     0          
O        O      0.999800000000     0.816100000000     0.953000000000     0          
O        O      0.958500000000     0.729300000000     0.953000000000     0          
O        O      0.838000000000     0.779400000000     0.953000000000     0          
O        O      0.918000000000     0.801900000000     0.905550000000     0          
O        O      0.832100000000     0.832100000000     0.875000000000     0          
O        O      0.130100000000     0.870200000000     0.952950000000     0          
O        O      0.237600000000     0.000000000000     0.875000000000     0          
O        O      0.183900000000     0.999800000000     0.953000000000     0          
O        O      0.270700000000     0.958500000000     0.953000000000     0          
O        O      0.220600000000     0.838000000000     0.953000000000     0          
O        O      0.198100000000     0.918000000000     0.905550000000     0          
O        O      0.167900000000     0.832100000000     0.875000000000     0          
O        O      0.129800000000     0.130100000000     0.952950000000     0          
O        O      0.000000000000     0.237600000000     0.875000000000     0          
O        O      0.000200000000     0.183900000000     0.953000000000     0          
O        O      0.041500000000     0.270700000000     0.953000000000     0          
O        O      0.162000000000     0.220600000000     0.953000000000     0          
O        O      0.082000000000     0.198100000000     0.905550000000     0          
O        O      0.167900000000     0.167900000000     0.875000000000     0          
O        O      0.869900000000     0.129800000000     0.952950000000     0          
O        O      0.762400000000     0.000000000000     0.875000000000     0          
O        O      0.816100000000     0.000200000000     0.953000000000     0          
O        O      0.729300000000     0.041500000000     0.953000000000     0          
O        O      0.779400000000     0.162000000000     0.953000000000     0          
O        O      0.801900000000     0.082000000000     0.905550000000     0          
O        O      0.832100000000     0.167900000000     0.875000000000     0          
O        O      0.870200000000     0.130100000000     0.797050000000     0          
O        O      0.999800000000     0.183900000000     0.797000000000     0          
O        O      0.958500000000     0.270700000000     0.797000000000     0          
O        O      0.838000000000     0.220600000000     0.797000000000     0          
O        O      0.918000000000     0.198100000000     0.844450000000     0          
O        O      0.869900000000     0.870200000000     0.797050000000     0          
O        O      0.816100000000     0.999800000000     0.797000000000     0          
O        O      0.729300000000     0.958500000000     0.797000000000     0          
O        O      0.779400000000     0.838000000000     0.797000000000     0          
O        O      0.801900000000     0.918000000000     0.844450000000     0          
O        O      0.129800000000     0.869900000000     0.797050000000     0          
O        O      0.000200000000     0.816100000000     0.797000000000     0          
O        O      0.041500000000     0.729300000000     0.797000000000     0          
O        O      0.162000000000     0.779400000000     0.797000000000     0          
O        O      0.082000000000     0.801900000000     0.844450000000     0          
O        O      0.130100000000     0.129800000000     0.797050000000     0          
O        O      0.183900000000     0.000200000000     0.797000000000     0          
O        O      0.270700000000     0.041500000000     0.797000000000     0          
O        O      0.220600000000     0.162000000000     0.797000000000     0          
O        O      0.198100000000     0.082000000000     0.844450000000     0          
O        O      0.629800000000     0.630100000000     0.797050000000     0          
O        O      0.500000000000     0.737600000000     0.875000000000     0          
O        O      0.500200000000     0.683900000000     0.797000000000     0          
O        O      0.541500000000     0.770700000000     0.797000000000     0          
O        O      0.662000000000     0.720600000000     0.797000000000     0          
O        O      0.582000000000     0.698100000000     0.844450000000     0          
O        O      0.547900000000     0.615500000000     0.750000000000     0          
O        O      0.615900000000     0.548000000000     0.750000000000     0          
O        O      0.667900000000     0.667900000000     0.875000000000     0          
O        O      0.621600000000     0.793300000000     0.750000000000     0          
O        O      0.546800000000     0.853700000000     0.750000000000     0          
O        O      0.369900000000     0.629800000000     0.797050000000     0          
O        O      0.262400000000     0.500000000000     0.875000000000     0          
O        O      0.316100000000     0.500200000000     0.797000000000     0          
O        O      0.229300000000     0.541500000000     0.797000000000     0          
O        O      0.279400000000     0.662000000000     0.797000000000     0          
O        O      0.301900000000     0.582000000000     0.844450000000     0          
O        O      0.384500000000     0.547900000000     0.750000000000     0          
O        O      0.452000000000     0.615900000000     0.750000000000     0          
O        O      0.332100000000     0.667900000000     0.875000000000     0          
O        O      0.206700000000     0.621600000000     0.750000000000     0          
O        O      0.146300000000     0.546800000000     0.750000000000     0          
O        O      0.370200000000     0.369900000000     0.797050000000     0          
O        O      0.500000000000     0.262400000000     0.875000000000     0          
O        O      0.499800000000     0.316100000000     0.797000000000     0          
O        O      0.458500000000     0.229300000000     0.797000000000     0          
O        O      0.338000000000     0.279400000000     0.797000000000     0          
O        O      0.418000000000     0.301900000000     0.844450000000     0          
O        O      0.452100000000     0.384500000000     0.750000000000     0          
O        O      0.384100000000     0.452000000000     0.750000000000     0          
O        O      0.332100000000     0.332100000000     0.875000000000     0          
O        O      0.378400000000     0.206700000000     0.750000000000     0          
O        O      0.453200000000     0.146300000000     0.750000000000     0          
O        O      0.630100000000     0.370200000000     0.797050000000     0          
O        O      0.737600000000     0.500000000000     0.875000000000     0          
O        O      0.683900000000     0.499800000000     0.797000000000     0          
O        O      0.770700000000     0.458500000000     0.797000000000     0          
O        O      0.720600000000     0.338000000000     0.797000000000     0          
O        O      0.698100000000     0.418000000000     0.844450000000     0          
O        O      0.615500000000     0.452100000000     0.750000000000     0          
O        O      0.548000000000     0.384100000000     0.750000000000     0          
O        O      0.667900000000     0.332100000000     0.875000000000     0          
O        O      0.793300000000     0.378400000000     0.750000000000     0          
O        O      0.853700000000     0.453200000000     0.750000000000     0          
O        O      0.629800000000     0.369900000000     0.952950000000     0          
O        O      0.500200000000     0.316100000000     0.953000000000     0          
O        O      0.541500000000     0.229300000000     0.953000000000     0          
O        O      0.662000000000     0.279400000000     0.953000000000     0          
O        O      0.582000000000     0.301900000000     0.905550000000     0          
O        O      0.547900000000     0.384500000000     0.500000000000     0          
O        O      0.615900000000     0.452000000000     0.500000000000     0          
O        O      0.621600000000     0.206700000000     0.500000000000     0          
O        O      0.546800000000     0.146300000000     0.500000000000     0          
O        O      0.630100000000     0.629800000000     0.952950000000     0          
O        O      0.683900000000     0.500200000000     0.953000000000     0          
O        O      0.770700000000     0.541500000000     0.953000000000     0          
O        O      0.720600000000     0.662000000000     0.953000000000     0          
O        O      0.698100000000     0.582000000000     0.905550000000     0          
O        O      0.615500000000     0.547900000000     0.500000000000     0          
O        O      0.548000000000     0.615900000000     0.500000000000     0          
O        O      0.793300000000     0.621600000000     0.500000000000     0          
O        O      0.853700000000     0.546800000000     0.500000000000     0          
O        O      0.370200000000     0.630100000000     0.952950000000     0          
O        O      0.499800000000     0.683900000000     0.953000000000     0          
O        O      0.458500000000     0.770700000000     0.953000000000     0          
O        O      0.338000000000     0.720600000000     0.953000000000     0          
O        O      0.418000000000     0.698100000000     0.905550000000     0          
O        O      0.452100000000     0.615500000000     0.500000000000     0          
O        O      0.384100000000     0.548000000000     0.500000000000     0          
O        O      0.378400000000     0.793300000000     0.500000000000     0          
O        O      0.453200000000     0.853700000000     0.500000000000     0          
O        O      0.369900000000     0.370200000000     0.952950000000     0          
O        O      0.316100000000     0.499800000000     0.953000000000     0          
O        O      0.229300000000     0.458500000000     0.953000000000     0          
O        O      0.279400000000     0.338000000000     0.953000000000     0          
O        O      0.301900000000     0.418000000000     0.905550000000     0          
O        O      0.384500000000     0.452100000000     0.500000000000     0          
O        O      0.452000000000     0.384100000000     0.500000000000     0          
O        O      0.206700000000     0.378400000000     0.500000000000     0          
O        O      0.146300000000     0.453200000000     0.500000000000     0          
O        O      0.370200000000     0.369900000000     0.702950000000     0          
O        O      0.500000000000     0.262400000000     0.625000000000     0          
O        O      0.499800000000     0.316100000000     0.703000000000     0          
O        O      0.458500000000     0.229300000000     0.703000000000     0          
O        O      0.338000000000     0.279400000000     0.703000000000     0          
O        O      0.418000000000     0.301900000000     0.655550000000     0          
O        O      0.332100000000     0.332100000000     0.625000000000     0          
O        O      0.630100000000     0.370200000000     0.702950000000     0          
O        O      0.737600000000     0.500000000000     0.625000000000     0          
O        O      0.683900000000     0.499800000000     0.703000000000     0          
O        O      0.770700000000     0.458500000000     0.703000000000     0          
O        O      0.720600000000     0.338000000000     0.703000000000     0          
O        O      0.698100000000     0.418000000000     0.655550000000     0          
O        O      0.667900000000     0.332100000000     0.625000000000     0          
O        O      0.629800000000     0.630100000000     0.702950000000     0          
O        O      0.500000000000     0.737600000000     0.625000000000     0          
O        O      0.500200000000     0.683900000000     0.703000000000     0          
O        O      0.541500000000     0.770700000000     0.703000000000     0          
O        O      0.662000000000     0.720600000000     0.703000000000     0          
O        O      0.582000000000     0.698100000000     0.655550000000     0          
O        O      0.667900000000     0.667900000000     0.625000000000     0          
O        O      0.369900000000     0.629800000000     0.702950000000     0          
O        O      0.262400000000     0.500000000000     0.625000000000     0          
O        O      0.316100000000     0.500200000000     0.703000000000     0          
O        O      0.229300000000     0.541500000000     0.703000000000     0          
O        O      0.279400000000     0.662000000000     0.703000000000     0          
O        O      0.301900000000     0.582000000000     0.655550000000     0          
O        O      0.332100000000     0.667900000000     0.625000000000     0          
O        O      0.370200000000     0.630100000000     0.547050000000     0          
O        O      0.499800000000     0.683900000000     0.547000000000     0          
O        O      0.458500000000     0.770700000000     0.547000000000     0          
O        O      0.338000000000     0.720600000000     0.547000000000     0          
O        O      0.418000000000     0.698100000000     0.594450000000     0          
O        O      0.369900000000     0.370200000000     0.547050000000     0          
O        O      0.316100000000     0.499800000000     0.547000000000     0          
O        O      0.229300000000     0.458500000000     0.547000000000     0          
O        O      0.279400000000     0.338000000000     0.547000000000     0          
O        O      0.301900000000     0.418000000000     0.594450000000     0          
O        O      0.629800000000     0.369900000000     0.547050000000     0          
O        O      0.500200000000     0.316100000000     0.547000000000     0          
O        O      0.541500000000     0.229300000000     0.547000000000     0          
O        O      0.662000000000     0.279400000000     0.547000000000     0          
O        O      0.582000000000     0.301900000000     0.594450000000     0          
O        O      0.630100000000     0.629800000000     0.547050000000     0          
O        O      0.683900000000     0.500200000000     0.547000000000     0          
O        O      0.770700000000     0.541500000000     0.547000000000     0          
O        O      0.720600000000     0.662000000000     0.547000000000     0          
O        O      0.698100000000     0.582000000000     0.594450000000     0          


