data_zeolite

_audit_creation_method RASPA-1.0
_audit_creation_date 2021-6-6
_audit_author_name ''

_cell_length_a    19.845
_cell_length_b    19.845
_cell_length_c    19.845
_cell_angle_alpha 90
_cell_angle_beta  90
_cell_angle_gamma 90
_cell_volume      62523.8

_symmetry_cell_setting          cubic
_symmetry_space_group_name_Hall 'P 1'
_symmetry_space_group_name_H-M  'P 1'
_symmetry_Int_Tables_number     1

_symmetry_equiv_pos_as_xyz 'x,y,z'

loop_
_atom_site_label
_atom_site_type_symbol
_atom_site_fract_x
_atom_site_fract_y
_atom_site_fract_z
_atom_site_charge
T        Si     0.034325000000     0.184385000000     0.214075000000     0          
T        Si     0.017385000000     0.114795000000     0.231245000000     0          
T        Si     0.078950000000     0.242315000000     0.227965000000     0          
T        Si     0.051110000000     0.052230000000     0.251720000000     0          
T        Si     0.215675000000     0.315615000000     0.464075000000     0          
T        Si     0.232615000000     0.385205000000     0.481245000000     0          
T        Si     0.171050000000     0.257685000000     0.477965000000     0          
T        Si     0.198890000000     0.447770000000     0.001720000000     0          
T        Si     0.284325000000     0.065615000000     0.285925000000     0          
T        Si     0.267385000000     0.135205000000     0.268755000000     0          
T        Si     0.328950000000     0.007685000000     0.272035000000     0          
T        Si     0.301110000000     0.197770000000     0.248280000000     0          
T        Si     0.465675000000     0.434385000000     0.035925000000     0          
T        Si     0.482615000000     0.364795000000     0.018755000000     0          
T        Si     0.421050000000     0.492315000000     0.022035000000     0          
T        Si     0.448890000000     0.302230000000     0.498280000000     0          
T        Si     0.214075000000     0.034325000000     0.184385000000     0          
T        Si     0.231245000000     0.017385000000     0.114795000000     0          
T        Si     0.227965000000     0.078950000000     0.242315000000     0          
T        Si     0.251720000000     0.051110000000     0.052230000000     0          
T        Si     0.035925000000     0.465675000000     0.434385000000     0          
T        Si     0.018755000000     0.482615000000     0.364795000000     0          
T        Si     0.022035000000     0.421050000000     0.492315000000     0          
T        Si     0.498280000000     0.448890000000     0.302230000000     0          
T        Si     0.464075000000     0.215675000000     0.315615000000     0          
T        Si     0.481245000000     0.232615000000     0.385205000000     0          
T        Si     0.477965000000     0.171050000000     0.257685000000     0          
T        Si     0.001720000000     0.198890000000     0.447770000000     0          
T        Si     0.285925000000     0.284325000000     0.065615000000     0          
T        Si     0.268755000000     0.267385000000     0.135205000000     0          
T        Si     0.272035000000     0.328950000000     0.007685000000     0          
T        Si     0.248280000000     0.301110000000     0.197770000000     0          
T        Si     0.184385000000     0.214075000000     0.034325000000     0          
T        Si     0.114795000000     0.231245000000     0.017385000000     0          
T        Si     0.242315000000     0.227965000000     0.078950000000     0          
T        Si     0.052230000000     0.251720000000     0.051110000000     0          
T        Si     0.434385000000     0.035925000000     0.465675000000     0          
T        Si     0.364795000000     0.018755000000     0.482615000000     0          
T        Si     0.492315000000     0.022035000000     0.421050000000     0          
T        Si     0.302230000000     0.498280000000     0.448890000000     0          
T        Si     0.315615000000     0.464075000000     0.215675000000     0          
T        Si     0.385205000000     0.481245000000     0.232615000000     0          
T        Si     0.257685000000     0.477965000000     0.171050000000     0          
T        Si     0.447770000000     0.001720000000     0.198890000000     0          
T        Si     0.065615000000     0.285925000000     0.284325000000     0          
T        Si     0.135205000000     0.268755000000     0.267385000000     0          
T        Si     0.007685000000     0.272035000000     0.328950000000     0          
T        Si     0.197770000000     0.248280000000     0.301110000000     0          
T        Si     0.465675000000     0.315615000000     0.285925000000     0          
T        Si     0.482615000000     0.385205000000     0.268755000000     0          
T        Si     0.421050000000     0.257685000000     0.272035000000     0          
T        Si     0.448890000000     0.447770000000     0.248280000000     0          
T        Si     0.284325000000     0.184385000000     0.035925000000     0          
T        Si     0.267385000000     0.114795000000     0.018755000000     0          
T        Si     0.328950000000     0.242315000000     0.022035000000     0          
T        Si     0.301110000000     0.052230000000     0.498280000000     0          
T        Si     0.215675000000     0.434385000000     0.214075000000     0          
T        Si     0.232615000000     0.364795000000     0.231245000000     0          
T        Si     0.171050000000     0.492315000000     0.227965000000     0          
T        Si     0.198890000000     0.302230000000     0.251720000000     0          
T        Si     0.034325000000     0.065615000000     0.464075000000     0          
T        Si     0.017385000000     0.135205000000     0.481245000000     0          
T        Si     0.078950000000     0.007685000000     0.477965000000     0          
T        Si     0.051110000000     0.197770000000     0.001720000000     0          
T        Si     0.285925000000     0.465675000000     0.315615000000     0          
T        Si     0.268755000000     0.482615000000     0.385205000000     0          
T        Si     0.272035000000     0.421050000000     0.257685000000     0          
T        Si     0.248280000000     0.448890000000     0.447770000000     0          
T        Si     0.464075000000     0.034325000000     0.065615000000     0          
T        Si     0.481245000000     0.017385000000     0.135205000000     0          
T        Si     0.477965000000     0.078950000000     0.007685000000     0          
T        Si     0.001720000000     0.051110000000     0.197770000000     0          
T        Si     0.035925000000     0.284325000000     0.184385000000     0          
T        Si     0.018755000000     0.267385000000     0.114795000000     0          
T        Si     0.022035000000     0.328950000000     0.242315000000     0          
T        Si     0.498280000000     0.301110000000     0.052230000000     0          
T        Si     0.214075000000     0.215675000000     0.434385000000     0          
T        Si     0.231245000000     0.232615000000     0.364795000000     0          
T        Si     0.227965000000     0.171050000000     0.492315000000     0          
T        Si     0.251720000000     0.198890000000     0.302230000000     0          
T        Si     0.315615000000     0.285925000000     0.465675000000     0          
T        Si     0.385205000000     0.268755000000     0.482615000000     0          
T        Si     0.257685000000     0.272035000000     0.421050000000     0          
T        Si     0.447770000000     0.248280000000     0.448890000000     0          
T        Si     0.065615000000     0.464075000000     0.034325000000     0          
T        Si     0.135205000000     0.481245000000     0.017385000000     0          
T        Si     0.007685000000     0.477965000000     0.078950000000     0          
T        Si     0.197770000000     0.001720000000     0.051110000000     0          
T        Si     0.184385000000     0.035925000000     0.284325000000     0          
T        Si     0.114795000000     0.018755000000     0.267385000000     0          
T        Si     0.242315000000     0.022035000000     0.328950000000     0          
T        Si     0.052230000000     0.498280000000     0.301110000000     0          
T        Si     0.434385000000     0.214075000000     0.215675000000     0          
T        Si     0.364795000000     0.231245000000     0.232615000000     0          
T        Si     0.492315000000     0.227965000000     0.171050000000     0          
T        Si     0.302230000000     0.251720000000     0.198890000000     0          
T        Si     0.034325000000     0.184385000000     0.714075000000     0          
T        Si     0.017385000000     0.114795000000     0.731245000000     0          
T        Si     0.078950000000     0.242315000000     0.727965000000     0          
T        Si     0.051110000000     0.052230000000     0.751720000000     0          
T        Si     0.215675000000     0.315615000000     0.964075000000     0          
T        Si     0.232615000000     0.385205000000     0.981245000000     0          
T        Si     0.171050000000     0.257685000000     0.977965000000     0          
T        Si     0.198890000000     0.447770000000     0.501720000000     0          
T        Si     0.284325000000     0.065615000000     0.785925000000     0          
T        Si     0.267385000000     0.135205000000     0.768755000000     0          
T        Si     0.328950000000     0.007685000000     0.772035000000     0          
T        Si     0.301110000000     0.197770000000     0.748280000000     0          
T        Si     0.465675000000     0.434385000000     0.535925000000     0          
T        Si     0.482615000000     0.364795000000     0.518755000000     0          
T        Si     0.421050000000     0.492315000000     0.522035000000     0          
T        Si     0.448890000000     0.302230000000     0.998280000000     0          
T        Si     0.214075000000     0.034325000000     0.684385000000     0          
T        Si     0.231245000000     0.017385000000     0.614795000000     0          
T        Si     0.227965000000     0.078950000000     0.742315000000     0          
T        Si     0.251720000000     0.051110000000     0.552230000000     0          
T        Si     0.035925000000     0.465675000000     0.934385000000     0          
T        Si     0.018755000000     0.482615000000     0.864795000000     0          
T        Si     0.022035000000     0.421050000000     0.992315000000     0          
T        Si     0.498280000000     0.448890000000     0.802230000000     0          
T        Si     0.464075000000     0.215675000000     0.815615000000     0          
T        Si     0.481245000000     0.232615000000     0.885205000000     0          
T        Si     0.477965000000     0.171050000000     0.757685000000     0          
T        Si     0.001720000000     0.198890000000     0.947770000000     0          
T        Si     0.285925000000     0.284325000000     0.565615000000     0          
T        Si     0.268755000000     0.267385000000     0.635205000000     0          
T        Si     0.272035000000     0.328950000000     0.507685000000     0          
T        Si     0.248280000000     0.301110000000     0.697770000000     0          
T        Si     0.184385000000     0.214075000000     0.534325000000     0          
T        Si     0.114795000000     0.231245000000     0.517385000000     0          
T        Si     0.242315000000     0.227965000000     0.578950000000     0          
T        Si     0.052230000000     0.251720000000     0.551110000000     0          
T        Si     0.434385000000     0.035925000000     0.965675000000     0          
T        Si     0.364795000000     0.018755000000     0.982615000000     0          
T        Si     0.492315000000     0.022035000000     0.921050000000     0          
T        Si     0.302230000000     0.498280000000     0.948890000000     0          
T        Si     0.315615000000     0.464075000000     0.715675000000     0          
T        Si     0.385205000000     0.481245000000     0.732615000000     0          
T        Si     0.257685000000     0.477965000000     0.671050000000     0          
T        Si     0.447770000000     0.001720000000     0.698890000000     0          
T        Si     0.065615000000     0.285925000000     0.784325000000     0          
T        Si     0.135205000000     0.268755000000     0.767385000000     0          
T        Si     0.007685000000     0.272035000000     0.828950000000     0          
T        Si     0.197770000000     0.248280000000     0.801110000000     0          
T        Si     0.465675000000     0.315615000000     0.785925000000     0          
T        Si     0.482615000000     0.385205000000     0.768755000000     0          
T        Si     0.421050000000     0.257685000000     0.772035000000     0          
T        Si     0.448890000000     0.447770000000     0.748280000000     0          
T        Si     0.284325000000     0.184385000000     0.535925000000     0          
T        Si     0.267385000000     0.114795000000     0.518755000000     0          
T        Si     0.328950000000     0.242315000000     0.522035000000     0          
T        Si     0.301110000000     0.052230000000     0.998280000000     0          
T        Si     0.215675000000     0.434385000000     0.714075000000     0          
T        Si     0.232615000000     0.364795000000     0.731245000000     0          
T        Si     0.171050000000     0.492315000000     0.727965000000     0          
T        Si     0.198890000000     0.302230000000     0.751720000000     0          
T        Si     0.034325000000     0.065615000000     0.964075000000     0          
T        Si     0.017385000000     0.135205000000     0.981245000000     0          
T        Si     0.078950000000     0.007685000000     0.977965000000     0          
T        Si     0.051110000000     0.197770000000     0.501720000000     0          
T        Si     0.285925000000     0.465675000000     0.815615000000     0          
T        Si     0.268755000000     0.482615000000     0.885205000000     0          
T        Si     0.272035000000     0.421050000000     0.757685000000     0          
T        Si     0.248280000000     0.448890000000     0.947770000000     0          
T        Si     0.464075000000     0.034325000000     0.565615000000     0          
T        Si     0.481245000000     0.017385000000     0.635205000000     0          
T        Si     0.477965000000     0.078950000000     0.507685000000     0          
T        Si     0.001720000000     0.051110000000     0.697770000000     0          
T        Si     0.035925000000     0.284325000000     0.684385000000     0          
T        Si     0.018755000000     0.267385000000     0.614795000000     0          
T        Si     0.022035000000     0.328950000000     0.742315000000     0          
T        Si     0.498280000000     0.301110000000     0.552230000000     0          
T        Si     0.214075000000     0.215675000000     0.934385000000     0          
T        Si     0.231245000000     0.232615000000     0.864795000000     0          
T        Si     0.227965000000     0.171050000000     0.992315000000     0          
T        Si     0.251720000000     0.198890000000     0.802230000000     0          
T        Si     0.315615000000     0.285925000000     0.965675000000     0          
T        Si     0.385205000000     0.268755000000     0.982615000000     0          
T        Si     0.257685000000     0.272035000000     0.921050000000     0          
T        Si     0.447770000000     0.248280000000     0.948890000000     0          
T        Si     0.065615000000     0.464075000000     0.534325000000     0          
T        Si     0.135205000000     0.481245000000     0.517385000000     0          
T        Si     0.007685000000     0.477965000000     0.578950000000     0          
T        Si     0.197770000000     0.001720000000     0.551110000000     0          
T        Si     0.184385000000     0.035925000000     0.784325000000     0          
T        Si     0.114795000000     0.018755000000     0.767385000000     0          
T        Si     0.242315000000     0.022035000000     0.828950000000     0          
T        Si     0.052230000000     0.498280000000     0.801110000000     0          
T        Si     0.434385000000     0.214075000000     0.715675000000     0          
T        Si     0.364795000000     0.231245000000     0.732615000000     0          
T        Si     0.492315000000     0.227965000000     0.671050000000     0          
T        Si     0.302230000000     0.251720000000     0.698890000000     0          
T        Si     0.034325000000     0.684385000000     0.214075000000     0          
T        Si     0.017385000000     0.614795000000     0.231245000000     0          
T        Si     0.078950000000     0.742315000000     0.227965000000     0          
T        Si     0.051110000000     0.552230000000     0.251720000000     0          
T        Si     0.215675000000     0.815615000000     0.464075000000     0          
T        Si     0.232615000000     0.885205000000     0.481245000000     0          
T        Si     0.171050000000     0.757685000000     0.477965000000     0          
T        Si     0.198890000000     0.947770000000     0.001720000000     0          
T        Si     0.284325000000     0.565615000000     0.285925000000     0          
T        Si     0.267385000000     0.635205000000     0.268755000000     0          
T        Si     0.328950000000     0.507685000000     0.272035000000     0          
T        Si     0.301110000000     0.697770000000     0.248280000000     0          
T        Si     0.465675000000     0.934385000000     0.035925000000     0          
T        Si     0.482615000000     0.864795000000     0.018755000000     0          
T        Si     0.421050000000     0.992315000000     0.022035000000     0          
T        Si     0.448890000000     0.802230000000     0.498280000000     0          
T        Si     0.214075000000     0.534325000000     0.184385000000     0          
T        Si     0.231245000000     0.517385000000     0.114795000000     0          
T        Si     0.227965000000     0.578950000000     0.242315000000     0          
T        Si     0.251720000000     0.551110000000     0.052230000000     0          
T        Si     0.035925000000     0.965675000000     0.434385000000     0          
T        Si     0.018755000000     0.982615000000     0.364795000000     0          
T        Si     0.022035000000     0.921050000000     0.492315000000     0          
T        Si     0.498280000000     0.948890000000     0.302230000000     0          
T        Si     0.464075000000     0.715675000000     0.315615000000     0          
T        Si     0.481245000000     0.732615000000     0.385205000000     0          
T        Si     0.477965000000     0.671050000000     0.257685000000     0          
T        Si     0.001720000000     0.698890000000     0.447770000000     0          
T        Si     0.285925000000     0.784325000000     0.065615000000     0          
T        Si     0.268755000000     0.767385000000     0.135205000000     0          
T        Si     0.272035000000     0.828950000000     0.007685000000     0          
T        Si     0.248280000000     0.801110000000     0.197770000000     0          
T        Si     0.184385000000     0.714075000000     0.034325000000     0          
T        Si     0.114795000000     0.731245000000     0.017385000000     0          
T        Si     0.242315000000     0.727965000000     0.078950000000     0          
T        Si     0.052230000000     0.751720000000     0.051110000000     0          
T        Si     0.434385000000     0.535925000000     0.465675000000     0          
T        Si     0.364795000000     0.518755000000     0.482615000000     0          
T        Si     0.492315000000     0.522035000000     0.421050000000     0          
T        Si     0.302230000000     0.998280000000     0.448890000000     0          
T        Si     0.315615000000     0.964075000000     0.215675000000     0          
T        Si     0.385205000000     0.981245000000     0.232615000000     0          
T        Si     0.257685000000     0.977965000000     0.171050000000     0          
T        Si     0.447770000000     0.501720000000     0.198890000000     0          
T        Si     0.065615000000     0.785925000000     0.284325000000     0          
T        Si     0.135205000000     0.768755000000     0.267385000000     0          
T        Si     0.007685000000     0.772035000000     0.328950000000     0          
T        Si     0.197770000000     0.748280000000     0.301110000000     0          
T        Si     0.465675000000     0.815615000000     0.285925000000     0          
T        Si     0.482615000000     0.885205000000     0.268755000000     0          
T        Si     0.421050000000     0.757685000000     0.272035000000     0          
T        Si     0.448890000000     0.947770000000     0.248280000000     0          
T        Si     0.284325000000     0.684385000000     0.035925000000     0          
T        Si     0.267385000000     0.614795000000     0.018755000000     0          
T        Si     0.328950000000     0.742315000000     0.022035000000     0          
T        Si     0.301110000000     0.552230000000     0.498280000000     0          
T        Si     0.215675000000     0.934385000000     0.214075000000     0          
T        Si     0.232615000000     0.864795000000     0.231245000000     0          
T        Si     0.171050000000     0.992315000000     0.227965000000     0          
T        Si     0.198890000000     0.802230000000     0.251720000000     0          
T        Si     0.034325000000     0.565615000000     0.464075000000     0          
T        Si     0.017385000000     0.635205000000     0.481245000000     0          
T        Si     0.078950000000     0.507685000000     0.477965000000     0          
T        Si     0.051110000000     0.697770000000     0.001720000000     0          
T        Si     0.285925000000     0.965675000000     0.315615000000     0          
T        Si     0.268755000000     0.982615000000     0.385205000000     0          
T        Si     0.272035000000     0.921050000000     0.257685000000     0          
T        Si     0.248280000000     0.948890000000     0.447770000000     0          
T        Si     0.464075000000     0.534325000000     0.065615000000     0          
T        Si     0.481245000000     0.517385000000     0.135205000000     0          
T        Si     0.477965000000     0.578950000000     0.007685000000     0          
T        Si     0.001720000000     0.551110000000     0.197770000000     0          
T        Si     0.035925000000     0.784325000000     0.184385000000     0          
T        Si     0.018755000000     0.767385000000     0.114795000000     0          
T        Si     0.022035000000     0.828950000000     0.242315000000     0          
T        Si     0.498280000000     0.801110000000     0.052230000000     0          
T        Si     0.214075000000     0.715675000000     0.434385000000     0          
T        Si     0.231245000000     0.732615000000     0.364795000000     0          
T        Si     0.227965000000     0.671050000000     0.492315000000     0          
T        Si     0.251720000000     0.698890000000     0.302230000000     0          
T        Si     0.315615000000     0.785925000000     0.465675000000     0          
T        Si     0.385205000000     0.768755000000     0.482615000000     0          
T        Si     0.257685000000     0.772035000000     0.421050000000     0          
T        Si     0.447770000000     0.748280000000     0.448890000000     0          
T        Si     0.065615000000     0.964075000000     0.034325000000     0          
T        Si     0.135205000000     0.981245000000     0.017385000000     0          
T        Si     0.007685000000     0.977965000000     0.078950000000     0          
T        Si     0.197770000000     0.501720000000     0.051110000000     0          
T        Si     0.184385000000     0.535925000000     0.284325000000     0          
T        Si     0.114795000000     0.518755000000     0.267385000000     0          
T        Si     0.242315000000     0.522035000000     0.328950000000     0          
T        Si     0.052230000000     0.998280000000     0.301110000000     0          
T        Si     0.434385000000     0.714075000000     0.215675000000     0          
T        Si     0.364795000000     0.731245000000     0.232615000000     0          
T        Si     0.492315000000     0.727965000000     0.171050000000     0          
T        Si     0.302230000000     0.751720000000     0.198890000000     0          
T        Si     0.034325000000     0.684385000000     0.714075000000     0          
T        Si     0.017385000000     0.614795000000     0.731245000000     0          
T        Si     0.078950000000     0.742315000000     0.727965000000     0          
T        Si     0.051110000000     0.552230000000     0.751720000000     0          
T        Si     0.215675000000     0.815615000000     0.964075000000     0          
T        Si     0.232615000000     0.885205000000     0.981245000000     0          
T        Si     0.171050000000     0.757685000000     0.977965000000     0          
T        Si     0.198890000000     0.947770000000     0.501720000000     0          
T        Si     0.284325000000     0.565615000000     0.785925000000     0          
T        Si     0.267385000000     0.635205000000     0.768755000000     0          
T        Si     0.328950000000     0.507685000000     0.772035000000     0          
T        Si     0.301110000000     0.697770000000     0.748280000000     0          
T        Si     0.465675000000     0.934385000000     0.535925000000     0          
T        Si     0.482615000000     0.864795000000     0.518755000000     0          
T        Si     0.421050000000     0.992315000000     0.522035000000     0          
T        Si     0.448890000000     0.802230000000     0.998280000000     0          
T        Si     0.214075000000     0.534325000000     0.684385000000     0          
T        Si     0.231245000000     0.517385000000     0.614795000000     0          
T        Si     0.227965000000     0.578950000000     0.742315000000     0          
T        Si     0.251720000000     0.551110000000     0.552230000000     0          
T        Si     0.035925000000     0.965675000000     0.934385000000     0          
T        Si     0.018755000000     0.982615000000     0.864795000000     0          
T        Si     0.022035000000     0.921050000000     0.992315000000     0          
T        Si     0.498280000000     0.948890000000     0.802230000000     0          
T        Si     0.464075000000     0.715675000000     0.815615000000     0          
T        Si     0.481245000000     0.732615000000     0.885205000000     0          
T        Si     0.477965000000     0.671050000000     0.757685000000     0          
T        Si     0.001720000000     0.698890000000     0.947770000000     0          
T        Si     0.285925000000     0.784325000000     0.565615000000     0          
T        Si     0.268755000000     0.767385000000     0.635205000000     0          
T        Si     0.272035000000     0.828950000000     0.507685000000     0          
T        Si     0.248280000000     0.801110000000     0.697770000000     0          
T        Si     0.184385000000     0.714075000000     0.534325000000     0          
T        Si     0.114795000000     0.731245000000     0.517385000000     0          
T        Si     0.242315000000     0.727965000000     0.578950000000     0          
T        Si     0.052230000000     0.751720000000     0.551110000000     0          
T        Si     0.434385000000     0.535925000000     0.965675000000     0          
T        Si     0.364795000000     0.518755000000     0.982615000000     0          
T        Si     0.492315000000     0.522035000000     0.921050000000     0          
T        Si     0.302230000000     0.998280000000     0.948890000000     0          
T        Si     0.315615000000     0.964075000000     0.715675000000     0          
T        Si     0.385205000000     0.981245000000     0.732615000000     0          
T        Si     0.257685000000     0.977965000000     0.671050000000     0          
T        Si     0.447770000000     0.501720000000     0.698890000000     0          
T        Si     0.065615000000     0.785925000000     0.784325000000     0          
T        Si     0.135205000000     0.768755000000     0.767385000000     0          
T        Si     0.007685000000     0.772035000000     0.828950000000     0          
T        Si     0.197770000000     0.748280000000     0.801110000000     0          
T        Si     0.465675000000     0.815615000000     0.785925000000     0          
T        Si     0.482615000000     0.885205000000     0.768755000000     0          
T        Si     0.421050000000     0.757685000000     0.772035000000     0          
T        Si     0.448890000000     0.947770000000     0.748280000000     0          
T        Si     0.284325000000     0.684385000000     0.535925000000     0          
T        Si     0.267385000000     0.614795000000     0.518755000000     0          
T        Si     0.328950000000     0.742315000000     0.522035000000     0          
T        Si     0.301110000000     0.552230000000     0.998280000000     0          
T        Si     0.215675000000     0.934385000000     0.714075000000     0          
T        Si     0.232615000000     0.864795000000     0.731245000000     0          
T        Si     0.171050000000     0.992315000000     0.727965000000     0          
T        Si     0.198890000000     0.802230000000     0.751720000000     0          
T        Si     0.034325000000     0.565615000000     0.964075000000     0          
T        Si     0.017385000000     0.635205000000     0.981245000000     0          
T        Si     0.078950000000     0.507685000000     0.977965000000     0          
T        Si     0.051110000000     0.697770000000     0.501720000000     0          
T        Si     0.285925000000     0.965675000000     0.815615000000     0          
T        Si     0.268755000000     0.982615000000     0.885205000000     0          
T        Si     0.272035000000     0.921050000000     0.757685000000     0          
T        Si     0.248280000000     0.948890000000     0.947770000000     0          
T        Si     0.464075000000     0.534325000000     0.565615000000     0          
T        Si     0.481245000000     0.517385000000     0.635205000000     0          
T        Si     0.477965000000     0.578950000000     0.507685000000     0          
T        Si     0.001720000000     0.551110000000     0.697770000000     0          
T        Si     0.035925000000     0.784325000000     0.684385000000     0          
T        Si     0.018755000000     0.767385000000     0.614795000000     0          
T        Si     0.022035000000     0.828950000000     0.742315000000     0          
T        Si     0.498280000000     0.801110000000     0.552230000000     0          
T        Si     0.214075000000     0.715675000000     0.934385000000     0          
T        Si     0.231245000000     0.732615000000     0.864795000000     0          
T        Si     0.227965000000     0.671050000000     0.992315000000     0          
T        Si     0.251720000000     0.698890000000     0.802230000000     0          
T        Si     0.315615000000     0.785925000000     0.965675000000     0          
T        Si     0.385205000000     0.768755000000     0.982615000000     0          
T        Si     0.257685000000     0.772035000000     0.921050000000     0          
T        Si     0.447770000000     0.748280000000     0.948890000000     0          
T        Si     0.065615000000     0.964075000000     0.534325000000     0          
T        Si     0.135205000000     0.981245000000     0.517385000000     0          
T        Si     0.007685000000     0.977965000000     0.578950000000     0          
T        Si     0.197770000000     0.501720000000     0.551110000000     0          
T        Si     0.184385000000     0.535925000000     0.784325000000     0          
T        Si     0.114795000000     0.518755000000     0.767385000000     0          
T        Si     0.242315000000     0.522035000000     0.828950000000     0          
T        Si     0.052230000000     0.998280000000     0.801110000000     0          
T        Si     0.434385000000     0.714075000000     0.715675000000     0          
T        Si     0.364795000000     0.731245000000     0.732615000000     0          
T        Si     0.492315000000     0.727965000000     0.671050000000     0          
T        Si     0.302230000000     0.751720000000     0.698890000000     0          
T        Si     0.534325000000     0.184385000000     0.214075000000     0          
T        Si     0.517385000000     0.114795000000     0.231245000000     0          
T        Si     0.578950000000     0.242315000000     0.227965000000     0          
T        Si     0.551110000000     0.052230000000     0.251720000000     0          
T        Si     0.715675000000     0.315615000000     0.464075000000     0          
T        Si     0.732615000000     0.385205000000     0.481245000000     0          
T        Si     0.671050000000     0.257685000000     0.477965000000     0          
T        Si     0.698890000000     0.447770000000     0.001720000000     0          
T        Si     0.784325000000     0.065615000000     0.285925000000     0          
T        Si     0.767385000000     0.135205000000     0.268755000000     0          
T        Si     0.828950000000     0.007685000000     0.272035000000     0          
T        Si     0.801110000000     0.197770000000     0.248280000000     0          
T        Si     0.965675000000     0.434385000000     0.035925000000     0          
T        Si     0.982615000000     0.364795000000     0.018755000000     0          
T        Si     0.921050000000     0.492315000000     0.022035000000     0          
T        Si     0.948890000000     0.302230000000     0.498280000000     0          
T        Si     0.714075000000     0.034325000000     0.184385000000     0          
T        Si     0.731245000000     0.017385000000     0.114795000000     0          
T        Si     0.727965000000     0.078950000000     0.242315000000     0          
T        Si     0.751720000000     0.051110000000     0.052230000000     0          
T        Si     0.535925000000     0.465675000000     0.434385000000     0          
T        Si     0.518755000000     0.482615000000     0.364795000000     0          
T        Si     0.522035000000     0.421050000000     0.492315000000     0          
T        Si     0.998280000000     0.448890000000     0.302230000000     0          
T        Si     0.964075000000     0.215675000000     0.315615000000     0          
T        Si     0.981245000000     0.232615000000     0.385205000000     0          
T        Si     0.977965000000     0.171050000000     0.257685000000     0          
T        Si     0.501720000000     0.198890000000     0.447770000000     0          
T        Si     0.785925000000     0.284325000000     0.065615000000     0          
T        Si     0.768755000000     0.267385000000     0.135205000000     0          
T        Si     0.772035000000     0.328950000000     0.007685000000     0          
T        Si     0.748280000000     0.301110000000     0.197770000000     0          
T        Si     0.684385000000     0.214075000000     0.034325000000     0          
T        Si     0.614795000000     0.231245000000     0.017385000000     0          
T        Si     0.742315000000     0.227965000000     0.078950000000     0          
T        Si     0.552230000000     0.251720000000     0.051110000000     0          
T        Si     0.934385000000     0.035925000000     0.465675000000     0          
T        Si     0.864795000000     0.018755000000     0.482615000000     0          
T        Si     0.992315000000     0.022035000000     0.421050000000     0          
T        Si     0.802230000000     0.498280000000     0.448890000000     0          
T        Si     0.815615000000     0.464075000000     0.215675000000     0          
T        Si     0.885205000000     0.481245000000     0.232615000000     0          
T        Si     0.757685000000     0.477965000000     0.171050000000     0          
T        Si     0.947770000000     0.001720000000     0.198890000000     0          
T        Si     0.565615000000     0.285925000000     0.284325000000     0          
T        Si     0.635205000000     0.268755000000     0.267385000000     0          
T        Si     0.507685000000     0.272035000000     0.328950000000     0          
T        Si     0.697770000000     0.248280000000     0.301110000000     0          
T        Si     0.965675000000     0.315615000000     0.285925000000     0          
T        Si     0.982615000000     0.385205000000     0.268755000000     0          
T        Si     0.921050000000     0.257685000000     0.272035000000     0          
T        Si     0.948890000000     0.447770000000     0.248280000000     0          
T        Si     0.784325000000     0.184385000000     0.035925000000     0          
T        Si     0.767385000000     0.114795000000     0.018755000000     0          
T        Si     0.828950000000     0.242315000000     0.022035000000     0          
T        Si     0.801110000000     0.052230000000     0.498280000000     0          
T        Si     0.715675000000     0.434385000000     0.214075000000     0          
T        Si     0.732615000000     0.364795000000     0.231245000000     0          
T        Si     0.671050000000     0.492315000000     0.227965000000     0          
T        Si     0.698890000000     0.302230000000     0.251720000000     0          
T        Si     0.534325000000     0.065615000000     0.464075000000     0          
T        Si     0.517385000000     0.135205000000     0.481245000000     0          
T        Si     0.578950000000     0.007685000000     0.477965000000     0          
T        Si     0.551110000000     0.197770000000     0.001720000000     0          
T        Si     0.785925000000     0.465675000000     0.315615000000     0          
T        Si     0.768755000000     0.482615000000     0.385205000000     0          
T        Si     0.772035000000     0.421050000000     0.257685000000     0          
T        Si     0.748280000000     0.448890000000     0.447770000000     0          
T        Si     0.964075000000     0.034325000000     0.065615000000     0          
T        Si     0.981245000000     0.017385000000     0.135205000000     0          
T        Si     0.977965000000     0.078950000000     0.007685000000     0          
T        Si     0.501720000000     0.051110000000     0.197770000000     0          
T        Si     0.535925000000     0.284325000000     0.184385000000     0          
T        Si     0.518755000000     0.267385000000     0.114795000000     0          
T        Si     0.522035000000     0.328950000000     0.242315000000     0          
T        Si     0.998280000000     0.301110000000     0.052230000000     0          
T        Si     0.714075000000     0.215675000000     0.434385000000     0          
T        Si     0.731245000000     0.232615000000     0.364795000000     0          
T        Si     0.727965000000     0.171050000000     0.492315000000     0          
T        Si     0.751720000000     0.198890000000     0.302230000000     0          
T        Si     0.815615000000     0.285925000000     0.465675000000     0          
T        Si     0.885205000000     0.268755000000     0.482615000000     0          
T        Si     0.757685000000     0.272035000000     0.421050000000     0          
T        Si     0.947770000000     0.248280000000     0.448890000000     0          
T        Si     0.565615000000     0.464075000000     0.034325000000     0          
T        Si     0.635205000000     0.481245000000     0.017385000000     0          
T        Si     0.507685000000     0.477965000000     0.078950000000     0          
T        Si     0.697770000000     0.001720000000     0.051110000000     0          
T        Si     0.684385000000     0.035925000000     0.284325000000     0          
T        Si     0.614795000000     0.018755000000     0.267385000000     0          
T        Si     0.742315000000     0.022035000000     0.328950000000     0          
T        Si     0.552230000000     0.498280000000     0.301110000000     0          
T        Si     0.934385000000     0.214075000000     0.215675000000     0          
T        Si     0.864795000000     0.231245000000     0.232615000000     0          
T        Si     0.992315000000     0.227965000000     0.171050000000     0          
T        Si     0.802230000000     0.251720000000     0.198890000000     0          
T        Si     0.534325000000     0.184385000000     0.714075000000     0          
T        Si     0.517385000000     0.114795000000     0.731245000000     0          
T        Si     0.578950000000     0.242315000000     0.727965000000     0          
T        Si     0.551110000000     0.052230000000     0.751720000000     0          
T        Si     0.715675000000     0.315615000000     0.964075000000     0          
T        Si     0.732615000000     0.385205000000     0.981245000000     0          
T        Si     0.671050000000     0.257685000000     0.977965000000     0          
T        Si     0.698890000000     0.447770000000     0.501720000000     0          
T        Si     0.784325000000     0.065615000000     0.785925000000     0          
T        Si     0.767385000000     0.135205000000     0.768755000000     0          
T        Si     0.828950000000     0.007685000000     0.772035000000     0          
T        Si     0.801110000000     0.197770000000     0.748280000000     0          
T        Si     0.965675000000     0.434385000000     0.535925000000     0          
T        Si     0.982615000000     0.364795000000     0.518755000000     0          
T        Si     0.921050000000     0.492315000000     0.522035000000     0          
T        Si     0.948890000000     0.302230000000     0.998280000000     0          
T        Si     0.714075000000     0.034325000000     0.684385000000     0          
T        Si     0.731245000000     0.017385000000     0.614795000000     0          
T        Si     0.727965000000     0.078950000000     0.742315000000     0          
T        Si     0.751720000000     0.051110000000     0.552230000000     0          
T        Si     0.535925000000     0.465675000000     0.934385000000     0          
T        Si     0.518755000000     0.482615000000     0.864795000000     0          
T        Si     0.522035000000     0.421050000000     0.992315000000     0          
T        Si     0.998280000000     0.448890000000     0.802230000000     0          
T        Si     0.964075000000     0.215675000000     0.815615000000     0          
T        Si     0.981245000000     0.232615000000     0.885205000000     0          
T        Si     0.977965000000     0.171050000000     0.757685000000     0          
T        Si     0.501720000000     0.198890000000     0.947770000000     0          
T        Si     0.785925000000     0.284325000000     0.565615000000     0          
T        Si     0.768755000000     0.267385000000     0.635205000000     0          
T        Si     0.772035000000     0.328950000000     0.507685000000     0          
T        Si     0.748280000000     0.301110000000     0.697770000000     0          
T        Si     0.684385000000     0.214075000000     0.534325000000     0          
T        Si     0.614795000000     0.231245000000     0.517385000000     0          
T        Si     0.742315000000     0.227965000000     0.578950000000     0          
T        Si     0.552230000000     0.251720000000     0.551110000000     0          
T        Si     0.934385000000     0.035925000000     0.965675000000     0          
T        Si     0.864795000000     0.018755000000     0.982615000000     0          
T        Si     0.992315000000     0.022035000000     0.921050000000     0          
T        Si     0.802230000000     0.498280000000     0.948890000000     0          
T        Si     0.815615000000     0.464075000000     0.715675000000     0          
T        Si     0.885205000000     0.481245000000     0.732615000000     0          
T        Si     0.757685000000     0.477965000000     0.671050000000     0          
T        Si     0.947770000000     0.001720000000     0.698890000000     0          
T        Si     0.565615000000     0.285925000000     0.784325000000     0          
T        Si     0.635205000000     0.268755000000     0.767385000000     0          
T        Si     0.507685000000     0.272035000000     0.828950000000     0          
T        Si     0.697770000000     0.248280000000     0.801110000000     0          
T        Si     0.965675000000     0.315615000000     0.785925000000     0          
T        Si     0.982615000000     0.385205000000     0.768755000000     0          
T        Si     0.921050000000     0.257685000000     0.772035000000     0          
T        Si     0.948890000000     0.447770000000     0.748280000000     0          
T        Si     0.784325000000     0.184385000000     0.535925000000     0          
T        Si     0.767385000000     0.114795000000     0.518755000000     0          
T        Si     0.828950000000     0.242315000000     0.522035000000     0          
T        Si     0.801110000000     0.052230000000     0.998280000000     0          
T        Si     0.715675000000     0.434385000000     0.714075000000     0          
T        Si     0.732615000000     0.364795000000     0.731245000000     0          
T        Si     0.671050000000     0.492315000000     0.727965000000     0          
T        Si     0.698890000000     0.302230000000     0.751720000000     0          
T        Si     0.534325000000     0.065615000000     0.964075000000     0          
T        Si     0.517385000000     0.135205000000     0.981245000000     0          
T        Si     0.578950000000     0.007685000000     0.977965000000     0          
T        Si     0.551110000000     0.197770000000     0.501720000000     0          
T        Si     0.785925000000     0.465675000000     0.815615000000     0          
T        Si     0.768755000000     0.482615000000     0.885205000000     0          
T        Si     0.772035000000     0.421050000000     0.757685000000     0          
T        Si     0.748280000000     0.448890000000     0.947770000000     0          
T        Si     0.964075000000     0.034325000000     0.565615000000     0          
T        Si     0.981245000000     0.017385000000     0.635205000000     0          
T        Si     0.977965000000     0.078950000000     0.507685000000     0          
T        Si     0.501720000000     0.051110000000     0.697770000000     0          
T        Si     0.535925000000     0.284325000000     0.684385000000     0          
T        Si     0.518755000000     0.267385000000     0.614795000000     0          
T        Si     0.522035000000     0.328950000000     0.742315000000     0          
T        Si     0.998280000000     0.301110000000     0.552230000000     0          
T        Si     0.714075000000     0.215675000000     0.934385000000     0          
T        Si     0.731245000000     0.232615000000     0.864795000000     0          
T        Si     0.727965000000     0.171050000000     0.992315000000     0          
T        Si     0.751720000000     0.198890000000     0.802230000000     0          
T        Si     0.815615000000     0.285925000000     0.965675000000     0          
T        Si     0.885205000000     0.268755000000     0.982615000000     0          
T        Si     0.757685000000     0.272035000000     0.921050000000     0          
T        Si     0.947770000000     0.248280000000     0.948890000000     0          
T        Si     0.565615000000     0.464075000000     0.534325000000     0          
T        Si     0.635205000000     0.481245000000     0.517385000000     0          
T        Si     0.507685000000     0.477965000000     0.578950000000     0          
T        Si     0.697770000000     0.001720000000     0.551110000000     0          
T        Si     0.684385000000     0.035925000000     0.784325000000     0          
T        Si     0.614795000000     0.018755000000     0.767385000000     0          
T        Si     0.742315000000     0.022035000000     0.828950000000     0          
T        Si     0.552230000000     0.498280000000     0.801110000000     0          
T        Si     0.934385000000     0.214075000000     0.715675000000     0          
T        Si     0.864795000000     0.231245000000     0.732615000000     0          
T        Si     0.992315000000     0.227965000000     0.671050000000     0          
T        Si     0.802230000000     0.251720000000     0.698890000000     0          
T        Si     0.534325000000     0.684385000000     0.214075000000     0          
T        Si     0.517385000000     0.614795000000     0.231245000000     0          
T        Si     0.578950000000     0.742315000000     0.227965000000     0          
T        Si     0.551110000000     0.552230000000     0.251720000000     0          
T        Si     0.715675000000     0.815615000000     0.464075000000     0          
T        Si     0.732615000000     0.885205000000     0.481245000000     0          
T        Si     0.671050000000     0.757685000000     0.477965000000     0          
T        Si     0.698890000000     0.947770000000     0.001720000000     0          
T        Si     0.784325000000     0.565615000000     0.285925000000     0          
T        Si     0.767385000000     0.635205000000     0.268755000000     0          
T        Si     0.828950000000     0.507685000000     0.272035000000     0          
T        Si     0.801110000000     0.697770000000     0.248280000000     0          
T        Si     0.965675000000     0.934385000000     0.035925000000     0          
T        Si     0.982615000000     0.864795000000     0.018755000000     0          
T        Si     0.921050000000     0.992315000000     0.022035000000     0          
T        Si     0.948890000000     0.802230000000     0.498280000000     0          
T        Si     0.714075000000     0.534325000000     0.184385000000     0          
T        Si     0.731245000000     0.517385000000     0.114795000000     0          
T        Si     0.727965000000     0.578950000000     0.242315000000     0          
T        Si     0.751720000000     0.551110000000     0.052230000000     0          
T        Si     0.535925000000     0.965675000000     0.434385000000     0          
T        Si     0.518755000000     0.982615000000     0.364795000000     0          
T        Si     0.522035000000     0.921050000000     0.492315000000     0          
T        Si     0.998280000000     0.948890000000     0.302230000000     0          
T        Si     0.964075000000     0.715675000000     0.315615000000     0          
T        Si     0.981245000000     0.732615000000     0.385205000000     0          
T        Si     0.977965000000     0.671050000000     0.257685000000     0          
T        Si     0.501720000000     0.698890000000     0.447770000000     0          
T        Si     0.785925000000     0.784325000000     0.065615000000     0          
T        Si     0.768755000000     0.767385000000     0.135205000000     0          
T        Si     0.772035000000     0.828950000000     0.007685000000     0          
T        Si     0.748280000000     0.801110000000     0.197770000000     0          
T        Si     0.684385000000     0.714075000000     0.034325000000     0          
T        Si     0.614795000000     0.731245000000     0.017385000000     0          
T        Si     0.742315000000     0.727965000000     0.078950000000     0          
T        Si     0.552230000000     0.751720000000     0.051110000000     0          
T        Si     0.934385000000     0.535925000000     0.465675000000     0          
T        Si     0.864795000000     0.518755000000     0.482615000000     0          
T        Si     0.992315000000     0.522035000000     0.421050000000     0          
T        Si     0.802230000000     0.998280000000     0.448890000000     0          
T        Si     0.815615000000     0.964075000000     0.215675000000     0          
T        Si     0.885205000000     0.981245000000     0.232615000000     0          
T        Si     0.757685000000     0.977965000000     0.171050000000     0          
T        Si     0.947770000000     0.501720000000     0.198890000000     0          
T        Si     0.565615000000     0.785925000000     0.284325000000     0          
T        Si     0.635205000000     0.768755000000     0.267385000000     0          
T        Si     0.507685000000     0.772035000000     0.328950000000     0          
T        Si     0.697770000000     0.748280000000     0.301110000000     0          
T        Si     0.965675000000     0.815615000000     0.285925000000     0          
T        Si     0.982615000000     0.885205000000     0.268755000000     0          
T        Si     0.921050000000     0.757685000000     0.272035000000     0          
T        Si     0.948890000000     0.947770000000     0.248280000000     0          
T        Si     0.784325000000     0.684385000000     0.035925000000     0          
T        Si     0.767385000000     0.614795000000     0.018755000000     0          
T        Si     0.828950000000     0.742315000000     0.022035000000     0          
T        Si     0.801110000000     0.552230000000     0.498280000000     0          
T        Si     0.715675000000     0.934385000000     0.214075000000     0          
T        Si     0.732615000000     0.864795000000     0.231245000000     0          
T        Si     0.671050000000     0.992315000000     0.227965000000     0          
T        Si     0.698890000000     0.802230000000     0.251720000000     0          
T        Si     0.534325000000     0.565615000000     0.464075000000     0          
T        Si     0.517385000000     0.635205000000     0.481245000000     0          
T        Si     0.578950000000     0.507685000000     0.477965000000     0          
T        Si     0.551110000000     0.697770000000     0.001720000000     0          
T        Si     0.785925000000     0.965675000000     0.315615000000     0          
T        Si     0.768755000000     0.982615000000     0.385205000000     0          
T        Si     0.772035000000     0.921050000000     0.257685000000     0          
T        Si     0.748280000000     0.948890000000     0.447770000000     0          
T        Si     0.964075000000     0.534325000000     0.065615000000     0          
T        Si     0.981245000000     0.517385000000     0.135205000000     0          
T        Si     0.977965000000     0.578950000000     0.007685000000     0          
T        Si     0.501720000000     0.551110000000     0.197770000000     0          
T        Si     0.535925000000     0.784325000000     0.184385000000     0          
T        Si     0.518755000000     0.767385000000     0.114795000000     0          
T        Si     0.522035000000     0.828950000000     0.242315000000     0          
T        Si     0.998280000000     0.801110000000     0.052230000000     0          
T        Si     0.714075000000     0.715675000000     0.434385000000     0          
T        Si     0.731245000000     0.732615000000     0.364795000000     0          
T        Si     0.727965000000     0.671050000000     0.492315000000     0          
T        Si     0.751720000000     0.698890000000     0.302230000000     0          
T        Si     0.815615000000     0.785925000000     0.465675000000     0          
T        Si     0.885205000000     0.768755000000     0.482615000000     0          
T        Si     0.757685000000     0.772035000000     0.421050000000     0          
T        Si     0.947770000000     0.748280000000     0.448890000000     0          
T        Si     0.565615000000     0.964075000000     0.034325000000     0          
T        Si     0.635205000000     0.981245000000     0.017385000000     0          
T        Si     0.507685000000     0.977965000000     0.078950000000     0          
T        Si     0.697770000000     0.501720000000     0.051110000000     0          
T        Si     0.684385000000     0.535925000000     0.284325000000     0          
T        Si     0.614795000000     0.518755000000     0.267385000000     0          
T        Si     0.742315000000     0.522035000000     0.328950000000     0          
T        Si     0.552230000000     0.998280000000     0.301110000000     0          
T        Si     0.934385000000     0.714075000000     0.215675000000     0          
T        Si     0.864795000000     0.731245000000     0.232615000000     0          
T        Si     0.992315000000     0.727965000000     0.171050000000     0          
T        Si     0.802230000000     0.751720000000     0.198890000000     0          
T        Si     0.534325000000     0.684385000000     0.714075000000     0          
T        Si     0.517385000000     0.614795000000     0.731245000000     0          
T        Si     0.578950000000     0.742315000000     0.727965000000     0          
T        Si     0.551110000000     0.552230000000     0.751720000000     0          
T        Si     0.715675000000     0.815615000000     0.964075000000     0          
T        Si     0.732615000000     0.885205000000     0.981245000000     0          
T        Si     0.671050000000     0.757685000000     0.977965000000     0          
T        Si     0.698890000000     0.947770000000     0.501720000000     0          
T        Si     0.784325000000     0.565615000000     0.785925000000     0          
T        Si     0.767385000000     0.635205000000     0.768755000000     0          
T        Si     0.828950000000     0.507685000000     0.772035000000     0          
T        Si     0.801110000000     0.697770000000     0.748280000000     0          
T        Si     0.965675000000     0.934385000000     0.535925000000     0          
T        Si     0.982615000000     0.864795000000     0.518755000000     0          
T        Si     0.921050000000     0.992315000000     0.522035000000     0          
T        Si     0.948890000000     0.802230000000     0.998280000000     0          
T        Si     0.714075000000     0.534325000000     0.684385000000     0          
T        Si     0.731245000000     0.517385000000     0.614795000000     0          
T        Si     0.727965000000     0.578950000000     0.742315000000     0          
T        Si     0.751720000000     0.551110000000     0.552230000000     0          
T        Si     0.535925000000     0.965675000000     0.934385000000     0          
T        Si     0.518755000000     0.982615000000     0.864795000000     0          
T        Si     0.522035000000     0.921050000000     0.992315000000     0          
T        Si     0.998280000000     0.948890000000     0.802230000000     0          
T        Si     0.964075000000     0.715675000000     0.815615000000     0          
T        Si     0.981245000000     0.732615000000     0.885205000000     0          
T        Si     0.977965000000     0.671050000000     0.757685000000     0          
T        Si     0.501720000000     0.698890000000     0.947770000000     0          
T        Si     0.785925000000     0.784325000000     0.565615000000     0          
T        Si     0.768755000000     0.767385000000     0.635205000000     0          
T        Si     0.772035000000     0.828950000000     0.507685000000     0          
T        Si     0.748280000000     0.801110000000     0.697770000000     0          
T        Si     0.684385000000     0.714075000000     0.534325000000     0          
T        Si     0.614795000000     0.731245000000     0.517385000000     0          
T        Si     0.742315000000     0.727965000000     0.578950000000     0          
T        Si     0.552230000000     0.751720000000     0.551110000000     0          
T        Si     0.934385000000     0.535925000000     0.965675000000     0          
T        Si     0.864795000000     0.518755000000     0.982615000000     0          
T        Si     0.992315000000     0.522035000000     0.921050000000     0          
T        Si     0.802230000000     0.998280000000     0.948890000000     0          
T        Si     0.815615000000     0.964075000000     0.715675000000     0          
T        Si     0.885205000000     0.981245000000     0.732615000000     0          
T        Si     0.757685000000     0.977965000000     0.671050000000     0          
T        Si     0.947770000000     0.501720000000     0.698890000000     0          
T        Si     0.565615000000     0.785925000000     0.784325000000     0          
T        Si     0.635205000000     0.768755000000     0.767385000000     0          
T        Si     0.507685000000     0.772035000000     0.828950000000     0          
T        Si     0.697770000000     0.748280000000     0.801110000000     0          
T        Si     0.965675000000     0.815615000000     0.785925000000     0          
T        Si     0.982615000000     0.885205000000     0.768755000000     0          
T        Si     0.921050000000     0.757685000000     0.772035000000     0          
T        Si     0.948890000000     0.947770000000     0.748280000000     0          
T        Si     0.784325000000     0.684385000000     0.535925000000     0          
T        Si     0.767385000000     0.614795000000     0.518755000000     0          
T        Si     0.828950000000     0.742315000000     0.522035000000     0          
T        Si     0.801110000000     0.552230000000     0.998280000000     0          
T        Si     0.715675000000     0.934385000000     0.714075000000     0          
T        Si     0.732615000000     0.864795000000     0.731245000000     0          
T        Si     0.671050000000     0.992315000000     0.727965000000     0          
T        Si     0.698890000000     0.802230000000     0.751720000000     0          
T        Si     0.534325000000     0.565615000000     0.964075000000     0          
T        Si     0.517385000000     0.635205000000     0.981245000000     0          
T        Si     0.578950000000     0.507685000000     0.977965000000     0          
T        Si     0.551110000000     0.697770000000     0.501720000000     0          
T        Si     0.785925000000     0.965675000000     0.815615000000     0          
T        Si     0.768755000000     0.982615000000     0.885205000000     0          
T        Si     0.772035000000     0.921050000000     0.757685000000     0          
T        Si     0.748280000000     0.948890000000     0.947770000000     0          
T        Si     0.964075000000     0.534325000000     0.565615000000     0          
T        Si     0.981245000000     0.517385000000     0.635205000000     0          
T        Si     0.977965000000     0.578950000000     0.507685000000     0          
T        Si     0.501720000000     0.551110000000     0.697770000000     0          
T        Si     0.535925000000     0.784325000000     0.684385000000     0          
T        Si     0.518755000000     0.767385000000     0.614795000000     0          
T        Si     0.522035000000     0.828950000000     0.742315000000     0          
T        Si     0.998280000000     0.801110000000     0.552230000000     0          
T        Si     0.714075000000     0.715675000000     0.934385000000     0          
T        Si     0.731245000000     0.732615000000     0.864795000000     0          
T        Si     0.727965000000     0.671050000000     0.992315000000     0          
T        Si     0.751720000000     0.698890000000     0.802230000000     0          
T        Si     0.815615000000     0.785925000000     0.965675000000     0          
T        Si     0.885205000000     0.768755000000     0.982615000000     0          
T        Si     0.757685000000     0.772035000000     0.921050000000     0          
T        Si     0.947770000000     0.748280000000     0.948890000000     0          
T        Si     0.565615000000     0.964075000000     0.534325000000     0          
T        Si     0.635205000000     0.981245000000     0.517385000000     0          
T        Si     0.507685000000     0.977965000000     0.578950000000     0          
T        Si     0.697770000000     0.501720000000     0.551110000000     0          
T        Si     0.684385000000     0.535925000000     0.784325000000     0          
T        Si     0.614795000000     0.518755000000     0.767385000000     0          
T        Si     0.742315000000     0.522035000000     0.828950000000     0          
T        Si     0.552230000000     0.998280000000     0.801110000000     0          
T        Si     0.934385000000     0.714075000000     0.715675000000     0          
T        Si     0.864795000000     0.731245000000     0.732615000000     0          
T        Si     0.992315000000     0.727965000000     0.671050000000     0          
T        Si     0.802230000000     0.751720000000     0.698890000000     0          
O        O      0.009640000000     0.193215000000     0.245140000000     0          
O        O      0.069545000000     0.203885000000     0.219045000000     0          
O        O      0.016400000000     0.196450000000     0.179705000000     0          
O        O      0.039365000000     0.144105000000     0.213715000000     0          
O        O      0.000315000000     0.091365000000     0.202800000000     0          
O        O      0.041350000000     0.091540000000     0.254345000000     0          
O        O      0.488400000000     0.132000000000     0.253890000000     0          
O        O      0.034000000000     0.037180000000     0.218100000000     0          
O        O      0.240360000000     0.306785000000     0.495140000000     0          
O        O      0.180455000000     0.296115000000     0.469045000000     0          
O        O      0.233600000000     0.303550000000     0.429705000000     0          
O        O      0.210635000000     0.355895000000     0.463715000000     0          
O        O      0.249685000000     0.408635000000     0.452800000000     0          
O        O      0.208650000000     0.408460000000     0.004345000000     0          
O        O      0.261600000000     0.368000000000     0.003890000000     0          
O        O      0.216000000000     0.462820000000     0.468100000000     0          
O        O      0.259640000000     0.056785000000     0.254860000000     0          
O        O      0.319545000000     0.046115000000     0.280955000000     0          
O        O      0.266400000000     0.053550000000     0.320295000000     0          
O        O      0.289365000000     0.105895000000     0.286285000000     0          
O        O      0.250315000000     0.158635000000     0.297200000000     0          
O        O      0.291350000000     0.158460000000     0.245655000000     0          
O        O      0.238400000000     0.118000000000     0.246110000000     0          
O        O      0.284000000000     0.212820000000     0.281900000000     0          
O        O      0.490360000000     0.443215000000     0.004860000000     0          
O        O      0.430455000000     0.453885000000     0.030955000000     0          
O        O      0.483600000000     0.446450000000     0.070295000000     0          
O        O      0.460635000000     0.394105000000     0.036285000000     0          
O        O      0.499685000000     0.341365000000     0.047200000000     0          
O        O      0.458650000000     0.341540000000     0.495655000000     0          
O        O      0.011600000000     0.382000000000     0.496110000000     0          
O        O      0.466000000000     0.287180000000     0.031900000000     0          
O        O      0.245140000000     0.009640000000     0.193215000000     0          
O        O      0.219045000000     0.069545000000     0.203885000000     0          
O        O      0.179705000000     0.016400000000     0.196450000000     0          
O        O      0.213715000000     0.039365000000     0.144105000000     0          
O        O      0.202800000000     0.000315000000     0.091365000000     0          
O        O      0.254345000000     0.041350000000     0.091540000000     0          
O        O      0.253890000000     0.488400000000     0.132000000000     0          
O        O      0.218100000000     0.034000000000     0.037180000000     0          
O        O      0.004860000000     0.490360000000     0.443215000000     0          
O        O      0.030955000000     0.430455000000     0.453885000000     0          
O        O      0.070295000000     0.483600000000     0.446450000000     0          
O        O      0.036285000000     0.460635000000     0.394105000000     0          
O        O      0.047200000000     0.499685000000     0.341365000000     0          
O        O      0.495655000000     0.458650000000     0.341540000000     0          
O        O      0.496110000000     0.011600000000     0.382000000000     0          
O        O      0.031900000000     0.466000000000     0.287180000000     0          
O        O      0.495140000000     0.240360000000     0.306785000000     0          
O        O      0.469045000000     0.180455000000     0.296115000000     0          
O        O      0.429705000000     0.233600000000     0.303550000000     0          
O        O      0.463715000000     0.210635000000     0.355895000000     0          
O        O      0.452800000000     0.249685000000     0.408635000000     0          
O        O      0.004345000000     0.208650000000     0.408460000000     0          
O        O      0.003890000000     0.261600000000     0.368000000000     0          
O        O      0.468100000000     0.216000000000     0.462820000000     0          
O        O      0.254860000000     0.259640000000     0.056785000000     0          
O        O      0.280955000000     0.319545000000     0.046115000000     0          
O        O      0.320295000000     0.266400000000     0.053550000000     0          
O        O      0.286285000000     0.289365000000     0.105895000000     0          
O        O      0.297200000000     0.250315000000     0.158635000000     0          
O        O      0.245655000000     0.291350000000     0.158460000000     0          
O        O      0.246110000000     0.238400000000     0.118000000000     0          
O        O      0.281900000000     0.284000000000     0.212820000000     0          
O        O      0.193215000000     0.245140000000     0.009640000000     0          
O        O      0.203885000000     0.219045000000     0.069545000000     0          
O        O      0.196450000000     0.179705000000     0.016400000000     0          
O        O      0.144105000000     0.213715000000     0.039365000000     0          
O        O      0.091365000000     0.202800000000     0.000315000000     0          
O        O      0.091540000000     0.254345000000     0.041350000000     0          
O        O      0.132000000000     0.253890000000     0.488400000000     0          
O        O      0.037180000000     0.218100000000     0.034000000000     0          
O        O      0.443215000000     0.004860000000     0.490360000000     0          
O        O      0.453885000000     0.030955000000     0.430455000000     0          
O        O      0.446450000000     0.070295000000     0.483600000000     0          
O        O      0.394105000000     0.036285000000     0.460635000000     0          
O        O      0.341365000000     0.047200000000     0.499685000000     0          
O        O      0.341540000000     0.495655000000     0.458650000000     0          
O        O      0.382000000000     0.496110000000     0.011600000000     0          
O        O      0.287180000000     0.031900000000     0.466000000000     0          
O        O      0.306785000000     0.495140000000     0.240360000000     0          
O        O      0.296115000000     0.469045000000     0.180455000000     0          
O        O      0.303550000000     0.429705000000     0.233600000000     0          
O        O      0.355895000000     0.463715000000     0.210635000000     0          
O        O      0.408635000000     0.452800000000     0.249685000000     0          
O        O      0.408460000000     0.004345000000     0.208650000000     0          
O        O      0.368000000000     0.003890000000     0.261600000000     0          
O        O      0.462820000000     0.468100000000     0.216000000000     0          
O        O      0.056785000000     0.254860000000     0.259640000000     0          
O        O      0.046115000000     0.280955000000     0.319545000000     0          
O        O      0.053550000000     0.320295000000     0.266400000000     0          
O        O      0.105895000000     0.286285000000     0.289365000000     0          
O        O      0.158635000000     0.297200000000     0.250315000000     0          
O        O      0.158460000000     0.245655000000     0.291350000000     0          
O        O      0.118000000000     0.246110000000     0.238400000000     0          
O        O      0.212820000000     0.281900000000     0.284000000000     0          
O        O      0.490360000000     0.306785000000     0.254860000000     0          
O        O      0.430455000000     0.296115000000     0.280955000000     0          
O        O      0.483600000000     0.303550000000     0.320295000000     0          
O        O      0.460635000000     0.355895000000     0.286285000000     0          
O        O      0.499685000000     0.408635000000     0.297200000000     0          
O        O      0.458650000000     0.408460000000     0.245655000000     0          
O        O      0.011600000000     0.368000000000     0.246110000000     0          
O        O      0.466000000000     0.462820000000     0.281900000000     0          
O        O      0.259640000000     0.193215000000     0.004860000000     0          
O        O      0.319545000000     0.203885000000     0.030955000000     0          
O        O      0.266400000000     0.196450000000     0.070295000000     0          
O        O      0.289365000000     0.144105000000     0.036285000000     0          
O        O      0.250315000000     0.091365000000     0.047200000000     0          
O        O      0.291350000000     0.091540000000     0.495655000000     0          
O        O      0.238400000000     0.132000000000     0.496110000000     0          
O        O      0.284000000000     0.037180000000     0.031900000000     0          
O        O      0.240360000000     0.443215000000     0.245140000000     0          
O        O      0.180455000000     0.453885000000     0.219045000000     0          
O        O      0.233600000000     0.446450000000     0.179705000000     0          
O        O      0.210635000000     0.394105000000     0.213715000000     0          
O        O      0.249685000000     0.341365000000     0.202800000000     0          
O        O      0.208650000000     0.341540000000     0.254345000000     0          
O        O      0.261600000000     0.382000000000     0.253890000000     0          
O        O      0.216000000000     0.287180000000     0.218100000000     0          
O        O      0.009640000000     0.056785000000     0.495140000000     0          
O        O      0.069545000000     0.046115000000     0.469045000000     0          
O        O      0.016400000000     0.053550000000     0.429705000000     0          
O        O      0.039365000000     0.105895000000     0.463715000000     0          
O        O      0.000315000000     0.158635000000     0.452800000000     0          
O        O      0.041350000000     0.158460000000     0.004345000000     0          
O        O      0.488400000000     0.118000000000     0.003890000000     0          
O        O      0.034000000000     0.212820000000     0.468100000000     0          
O        O      0.254860000000     0.490360000000     0.306785000000     0          
O        O      0.280955000000     0.430455000000     0.296115000000     0          
O        O      0.320295000000     0.483600000000     0.303550000000     0          
O        O      0.286285000000     0.460635000000     0.355895000000     0          
O        O      0.297200000000     0.499685000000     0.408635000000     0          
O        O      0.245655000000     0.458650000000     0.408460000000     0          
O        O      0.246110000000     0.011600000000     0.368000000000     0          
O        O      0.281900000000     0.466000000000     0.462820000000     0          
O        O      0.495140000000     0.009640000000     0.056785000000     0          
O        O      0.469045000000     0.069545000000     0.046115000000     0          
O        O      0.429705000000     0.016400000000     0.053550000000     0          
O        O      0.463715000000     0.039365000000     0.105895000000     0          
O        O      0.452800000000     0.000315000000     0.158635000000     0          
O        O      0.004345000000     0.041350000000     0.158460000000     0          
O        O      0.003890000000     0.488400000000     0.118000000000     0          
O        O      0.468100000000     0.034000000000     0.212820000000     0          
O        O      0.004860000000     0.259640000000     0.193215000000     0          
O        O      0.030955000000     0.319545000000     0.203885000000     0          
O        O      0.070295000000     0.266400000000     0.196450000000     0          
O        O      0.036285000000     0.289365000000     0.144105000000     0          
O        O      0.047200000000     0.250315000000     0.091365000000     0          
O        O      0.495655000000     0.291350000000     0.091540000000     0          
O        O      0.496110000000     0.238400000000     0.132000000000     0          
O        O      0.031900000000     0.284000000000     0.037180000000     0          
O        O      0.245140000000     0.240360000000     0.443215000000     0          
O        O      0.219045000000     0.180455000000     0.453885000000     0          
O        O      0.179705000000     0.233600000000     0.446450000000     0          
O        O      0.213715000000     0.210635000000     0.394105000000     0          
O        O      0.202800000000     0.249685000000     0.341365000000     0          
O        O      0.254345000000     0.208650000000     0.341540000000     0          
O        O      0.253890000000     0.261600000000     0.382000000000     0          
O        O      0.218100000000     0.216000000000     0.287180000000     0          
O        O      0.306785000000     0.254860000000     0.490360000000     0          
O        O      0.296115000000     0.280955000000     0.430455000000     0          
O        O      0.303550000000     0.320295000000     0.483600000000     0          
O        O      0.355895000000     0.286285000000     0.460635000000     0          
O        O      0.408635000000     0.297200000000     0.499685000000     0          
O        O      0.408460000000     0.245655000000     0.458650000000     0          
O        O      0.368000000000     0.246110000000     0.011600000000     0          
O        O      0.462820000000     0.281900000000     0.466000000000     0          
O        O      0.056785000000     0.495140000000     0.009640000000     0          
O        O      0.046115000000     0.469045000000     0.069545000000     0          
O        O      0.053550000000     0.429705000000     0.016400000000     0          
O        O      0.105895000000     0.463715000000     0.039365000000     0          
O        O      0.158635000000     0.452800000000     0.000315000000     0          
O        O      0.158460000000     0.004345000000     0.041350000000     0          
O        O      0.118000000000     0.003890000000     0.488400000000     0          
O        O      0.212820000000     0.468100000000     0.034000000000     0          
O        O      0.193215000000     0.004860000000     0.259640000000     0          
O        O      0.203885000000     0.030955000000     0.319545000000     0          
O        O      0.196450000000     0.070295000000     0.266400000000     0          
O        O      0.144105000000     0.036285000000     0.289365000000     0          
O        O      0.091365000000     0.047200000000     0.250315000000     0          
O        O      0.091540000000     0.495655000000     0.291350000000     0          
O        O      0.132000000000     0.496110000000     0.238400000000     0          
O        O      0.037180000000     0.031900000000     0.284000000000     0          
O        O      0.443215000000     0.245140000000     0.240360000000     0          
O        O      0.453885000000     0.219045000000     0.180455000000     0          
O        O      0.446450000000     0.179705000000     0.233600000000     0          
O        O      0.394105000000     0.213715000000     0.210635000000     0          
O        O      0.341365000000     0.202800000000     0.249685000000     0          
O        O      0.341540000000     0.254345000000     0.208650000000     0          
O        O      0.382000000000     0.253890000000     0.261600000000     0          
O        O      0.287180000000     0.218100000000     0.216000000000     0          
O        O      0.009640000000     0.193215000000     0.745140000000     0          
O        O      0.069545000000     0.203885000000     0.719045000000     0          
O        O      0.016400000000     0.196450000000     0.679705000000     0          
O        O      0.039365000000     0.144105000000     0.713715000000     0          
O        O      0.000315000000     0.091365000000     0.702800000000     0          
O        O      0.041350000000     0.091540000000     0.754345000000     0          
O        O      0.488400000000     0.132000000000     0.753890000000     0          
O        O      0.034000000000     0.037180000000     0.718100000000     0          
O        O      0.240360000000     0.306785000000     0.995140000000     0          
O        O      0.180455000000     0.296115000000     0.969045000000     0          
O        O      0.233600000000     0.303550000000     0.929705000000     0          
O        O      0.210635000000     0.355895000000     0.963715000000     0          
O        O      0.249685000000     0.408635000000     0.952800000000     0          
O        O      0.208650000000     0.408460000000     0.504345000000     0          
O        O      0.261600000000     0.368000000000     0.503890000000     0          
O        O      0.216000000000     0.462820000000     0.968100000000     0          
O        O      0.259640000000     0.056785000000     0.754860000000     0          
O        O      0.319545000000     0.046115000000     0.780955000000     0          
O        O      0.266400000000     0.053550000000     0.820295000000     0          
O        O      0.289365000000     0.105895000000     0.786285000000     0          
O        O      0.250315000000     0.158635000000     0.797200000000     0          
O        O      0.291350000000     0.158460000000     0.745655000000     0          
O        O      0.238400000000     0.118000000000     0.746110000000     0          
O        O      0.284000000000     0.212820000000     0.781900000000     0          
O        O      0.490360000000     0.443215000000     0.504860000000     0          
O        O      0.430455000000     0.453885000000     0.530955000000     0          
O        O      0.483600000000     0.446450000000     0.570295000000     0          
O        O      0.460635000000     0.394105000000     0.536285000000     0          
O        O      0.499685000000     0.341365000000     0.547200000000     0          
O        O      0.458650000000     0.341540000000     0.995655000000     0          
O        O      0.011600000000     0.382000000000     0.996110000000     0          
O        O      0.466000000000     0.287180000000     0.531900000000     0          
O        O      0.245140000000     0.009640000000     0.693215000000     0          
O        O      0.219045000000     0.069545000000     0.703885000000     0          
O        O      0.179705000000     0.016400000000     0.696450000000     0          
O        O      0.213715000000     0.039365000000     0.644105000000     0          
O        O      0.202800000000     0.000315000000     0.591365000000     0          
O        O      0.254345000000     0.041350000000     0.591540000000     0          
O        O      0.253890000000     0.488400000000     0.632000000000     0          
O        O      0.218100000000     0.034000000000     0.537180000000     0          
O        O      0.004860000000     0.490360000000     0.943215000000     0          
O        O      0.030955000000     0.430455000000     0.953885000000     0          
O        O      0.070295000000     0.483600000000     0.946450000000     0          
O        O      0.036285000000     0.460635000000     0.894105000000     0          
O        O      0.047200000000     0.499685000000     0.841365000000     0          
O        O      0.495655000000     0.458650000000     0.841540000000     0          
O        O      0.496110000000     0.011600000000     0.882000000000     0          
O        O      0.031900000000     0.466000000000     0.787180000000     0          
O        O      0.495140000000     0.240360000000     0.806785000000     0          
O        O      0.469045000000     0.180455000000     0.796115000000     0          
O        O      0.429705000000     0.233600000000     0.803550000000     0          
O        O      0.463715000000     0.210635000000     0.855895000000     0          
O        O      0.452800000000     0.249685000000     0.908635000000     0          
O        O      0.004345000000     0.208650000000     0.908460000000     0          
O        O      0.003890000000     0.261600000000     0.868000000000     0          
O        O      0.468100000000     0.216000000000     0.962820000000     0          
O        O      0.254860000000     0.259640000000     0.556785000000     0          
O        O      0.280955000000     0.319545000000     0.546115000000     0          
O        O      0.320295000000     0.266400000000     0.553550000000     0          
O        O      0.286285000000     0.289365000000     0.605895000000     0          
O        O      0.297200000000     0.250315000000     0.658635000000     0          
O        O      0.245655000000     0.291350000000     0.658460000000     0          
O        O      0.246110000000     0.238400000000     0.618000000000     0          
O        O      0.281900000000     0.284000000000     0.712820000000     0          
O        O      0.193215000000     0.245140000000     0.509640000000     0          
O        O      0.203885000000     0.219045000000     0.569545000000     0          
O        O      0.196450000000     0.179705000000     0.516400000000     0          
O        O      0.144105000000     0.213715000000     0.539365000000     0          
O        O      0.091365000000     0.202800000000     0.500315000000     0          
O        O      0.091540000000     0.254345000000     0.541350000000     0          
O        O      0.132000000000     0.253890000000     0.988400000000     0          
O        O      0.037180000000     0.218100000000     0.534000000000     0          
O        O      0.443215000000     0.004860000000     0.990360000000     0          
O        O      0.453885000000     0.030955000000     0.930455000000     0          
O        O      0.446450000000     0.070295000000     0.983600000000     0          
O        O      0.394105000000     0.036285000000     0.960635000000     0          
O        O      0.341365000000     0.047200000000     0.999685000000     0          
O        O      0.341540000000     0.495655000000     0.958650000000     0          
O        O      0.382000000000     0.496110000000     0.511600000000     0          
O        O      0.287180000000     0.031900000000     0.966000000000     0          
O        O      0.306785000000     0.495140000000     0.740360000000     0          
O        O      0.296115000000     0.469045000000     0.680455000000     0          
O        O      0.303550000000     0.429705000000     0.733600000000     0          
O        O      0.355895000000     0.463715000000     0.710635000000     0          
O        O      0.408635000000     0.452800000000     0.749685000000     0          
O        O      0.408460000000     0.004345000000     0.708650000000     0          
O        O      0.368000000000     0.003890000000     0.761600000000     0          
O        O      0.462820000000     0.468100000000     0.716000000000     0          
O        O      0.056785000000     0.254860000000     0.759640000000     0          
O        O      0.046115000000     0.280955000000     0.819545000000     0          
O        O      0.053550000000     0.320295000000     0.766400000000     0          
O        O      0.105895000000     0.286285000000     0.789365000000     0          
O        O      0.158635000000     0.297200000000     0.750315000000     0          
O        O      0.158460000000     0.245655000000     0.791350000000     0          
O        O      0.118000000000     0.246110000000     0.738400000000     0          
O        O      0.212820000000     0.281900000000     0.784000000000     0          
O        O      0.490360000000     0.306785000000     0.754860000000     0          
O        O      0.430455000000     0.296115000000     0.780955000000     0          
O        O      0.483600000000     0.303550000000     0.820295000000     0          
O        O      0.460635000000     0.355895000000     0.786285000000     0          
O        O      0.499685000000     0.408635000000     0.797200000000     0          
O        O      0.458650000000     0.408460000000     0.745655000000     0          
O        O      0.011600000000     0.368000000000     0.746110000000     0          
O        O      0.466000000000     0.462820000000     0.781900000000     0          
O        O      0.259640000000     0.193215000000     0.504860000000     0          
O        O      0.319545000000     0.203885000000     0.530955000000     0          
O        O      0.266400000000     0.196450000000     0.570295000000     0          
O        O      0.289365000000     0.144105000000     0.536285000000     0          
O        O      0.250315000000     0.091365000000     0.547200000000     0          
O        O      0.291350000000     0.091540000000     0.995655000000     0          
O        O      0.238400000000     0.132000000000     0.996110000000     0          
O        O      0.284000000000     0.037180000000     0.531900000000     0          
O        O      0.240360000000     0.443215000000     0.745140000000     0          
O        O      0.180455000000     0.453885000000     0.719045000000     0          
O        O      0.233600000000     0.446450000000     0.679705000000     0          
O        O      0.210635000000     0.394105000000     0.713715000000     0          
O        O      0.249685000000     0.341365000000     0.702800000000     0          
O        O      0.208650000000     0.341540000000     0.754345000000     0          
O        O      0.261600000000     0.382000000000     0.753890000000     0          
O        O      0.216000000000     0.287180000000     0.718100000000     0          
O        O      0.009640000000     0.056785000000     0.995140000000     0          
O        O      0.069545000000     0.046115000000     0.969045000000     0          
O        O      0.016400000000     0.053550000000     0.929705000000     0          
O        O      0.039365000000     0.105895000000     0.963715000000     0          
O        O      0.000315000000     0.158635000000     0.952800000000     0          
O        O      0.041350000000     0.158460000000     0.504345000000     0          
O        O      0.488400000000     0.118000000000     0.503890000000     0          
O        O      0.034000000000     0.212820000000     0.968100000000     0          
O        O      0.254860000000     0.490360000000     0.806785000000     0          
O        O      0.280955000000     0.430455000000     0.796115000000     0          
O        O      0.320295000000     0.483600000000     0.803550000000     0          
O        O      0.286285000000     0.460635000000     0.855895000000     0          
O        O      0.297200000000     0.499685000000     0.908635000000     0          
O        O      0.245655000000     0.458650000000     0.908460000000     0          
O        O      0.246110000000     0.011600000000     0.868000000000     0          
O        O      0.281900000000     0.466000000000     0.962820000000     0          
O        O      0.495140000000     0.009640000000     0.556785000000     0          
O        O      0.469045000000     0.069545000000     0.546115000000     0          
O        O      0.429705000000     0.016400000000     0.553550000000     0          
O        O      0.463715000000     0.039365000000     0.605895000000     0          
O        O      0.452800000000     0.000315000000     0.658635000000     0          
O        O      0.004345000000     0.041350000000     0.658460000000     0          
O        O      0.003890000000     0.488400000000     0.618000000000     0          
O        O      0.468100000000     0.034000000000     0.712820000000     0          
O        O      0.004860000000     0.259640000000     0.693215000000     0          
O        O      0.030955000000     0.319545000000     0.703885000000     0          
O        O      0.070295000000     0.266400000000     0.696450000000     0          
O        O      0.036285000000     0.289365000000     0.644105000000     0          
O        O      0.047200000000     0.250315000000     0.591365000000     0          
O        O      0.495655000000     0.291350000000     0.591540000000     0          
O        O      0.496110000000     0.238400000000     0.632000000000     0          
O        O      0.031900000000     0.284000000000     0.537180000000     0          
O        O      0.245140000000     0.240360000000     0.943215000000     0          
O        O      0.219045000000     0.180455000000     0.953885000000     0          
O        O      0.179705000000     0.233600000000     0.946450000000     0          
O        O      0.213715000000     0.210635000000     0.894105000000     0          
O        O      0.202800000000     0.249685000000     0.841365000000     0          
O        O      0.254345000000     0.208650000000     0.841540000000     0          
O        O      0.253890000000     0.261600000000     0.882000000000     0          
O        O      0.218100000000     0.216000000000     0.787180000000     0          
O        O      0.306785000000     0.254860000000     0.990360000000     0          
O        O      0.296115000000     0.280955000000     0.930455000000     0          
O        O      0.303550000000     0.320295000000     0.983600000000     0          
O        O      0.355895000000     0.286285000000     0.960635000000     0          
O        O      0.408635000000     0.297200000000     0.999685000000     0          
O        O      0.408460000000     0.245655000000     0.958650000000     0          
O        O      0.368000000000     0.246110000000     0.511600000000     0          
O        O      0.462820000000     0.281900000000     0.966000000000     0          
O        O      0.056785000000     0.495140000000     0.509640000000     0          
O        O      0.046115000000     0.469045000000     0.569545000000     0          
O        O      0.053550000000     0.429705000000     0.516400000000     0          
O        O      0.105895000000     0.463715000000     0.539365000000     0          
O        O      0.158635000000     0.452800000000     0.500315000000     0          
O        O      0.158460000000     0.004345000000     0.541350000000     0          
O        O      0.118000000000     0.003890000000     0.988400000000     0          
O        O      0.212820000000     0.468100000000     0.534000000000     0          
O        O      0.193215000000     0.004860000000     0.759640000000     0          
O        O      0.203885000000     0.030955000000     0.819545000000     0          
O        O      0.196450000000     0.070295000000     0.766400000000     0          
O        O      0.144105000000     0.036285000000     0.789365000000     0          
O        O      0.091365000000     0.047200000000     0.750315000000     0          
O        O      0.091540000000     0.495655000000     0.791350000000     0          
O        O      0.132000000000     0.496110000000     0.738400000000     0          
O        O      0.037180000000     0.031900000000     0.784000000000     0          
O        O      0.443215000000     0.245140000000     0.740360000000     0          
O        O      0.453885000000     0.219045000000     0.680455000000     0          
O        O      0.446450000000     0.179705000000     0.733600000000     0          
O        O      0.394105000000     0.213715000000     0.710635000000     0          
O        O      0.341365000000     0.202800000000     0.749685000000     0          
O        O      0.341540000000     0.254345000000     0.708650000000     0          
O        O      0.382000000000     0.253890000000     0.761600000000     0          
O        O      0.287180000000     0.218100000000     0.716000000000     0          
O        O      0.009640000000     0.693215000000     0.245140000000     0          
O        O      0.069545000000     0.703885000000     0.219045000000     0          
O        O      0.016400000000     0.696450000000     0.179705000000     0          
O        O      0.039365000000     0.644105000000     0.213715000000     0          
O        O      0.000315000000     0.591365000000     0.202800000000     0          
O        O      0.041350000000     0.591540000000     0.254345000000     0          
O        O      0.488400000000     0.632000000000     0.253890000000     0          
O        O      0.034000000000     0.537180000000     0.218100000000     0          
O        O      0.240360000000     0.806785000000     0.495140000000     0          
O        O      0.180455000000     0.796115000000     0.469045000000     0          
O        O      0.233600000000     0.803550000000     0.429705000000     0          
O        O      0.210635000000     0.855895000000     0.463715000000     0          
O        O      0.249685000000     0.908635000000     0.452800000000     0          
O        O      0.208650000000     0.908460000000     0.004345000000     0          
O        O      0.261600000000     0.868000000000     0.003890000000     0          
O        O      0.216000000000     0.962820000000     0.468100000000     0          
O        O      0.259640000000     0.556785000000     0.254860000000     0          
O        O      0.319545000000     0.546115000000     0.280955000000     0          
O        O      0.266400000000     0.553550000000     0.320295000000     0          
O        O      0.289365000000     0.605895000000     0.286285000000     0          
O        O      0.250315000000     0.658635000000     0.297200000000     0          
O        O      0.291350000000     0.658460000000     0.245655000000     0          
O        O      0.238400000000     0.618000000000     0.246110000000     0          
O        O      0.284000000000     0.712820000000     0.281900000000     0          
O        O      0.490360000000     0.943215000000     0.004860000000     0          
O        O      0.430455000000     0.953885000000     0.030955000000     0          
O        O      0.483600000000     0.946450000000     0.070295000000     0          
O        O      0.460635000000     0.894105000000     0.036285000000     0          
O        O      0.499685000000     0.841365000000     0.047200000000     0          
O        O      0.458650000000     0.841540000000     0.495655000000     0          
O        O      0.011600000000     0.882000000000     0.496110000000     0          
O        O      0.466000000000     0.787180000000     0.031900000000     0          
O        O      0.245140000000     0.509640000000     0.193215000000     0          
O        O      0.219045000000     0.569545000000     0.203885000000     0          
O        O      0.179705000000     0.516400000000     0.196450000000     0          
O        O      0.213715000000     0.539365000000     0.144105000000     0          
O        O      0.202800000000     0.500315000000     0.091365000000     0          
O        O      0.254345000000     0.541350000000     0.091540000000     0          
O        O      0.253890000000     0.988400000000     0.132000000000     0          
O        O      0.218100000000     0.534000000000     0.037180000000     0          
O        O      0.004860000000     0.990360000000     0.443215000000     0          
O        O      0.030955000000     0.930455000000     0.453885000000     0          
O        O      0.070295000000     0.983600000000     0.446450000000     0          
O        O      0.036285000000     0.960635000000     0.394105000000     0          
O        O      0.047200000000     0.999685000000     0.341365000000     0          
O        O      0.495655000000     0.958650000000     0.341540000000     0          
O        O      0.496110000000     0.511600000000     0.382000000000     0          
O        O      0.031900000000     0.966000000000     0.287180000000     0          
O        O      0.495140000000     0.740360000000     0.306785000000     0          
O        O      0.469045000000     0.680455000000     0.296115000000     0          
O        O      0.429705000000     0.733600000000     0.303550000000     0          
O        O      0.463715000000     0.710635000000     0.355895000000     0          
O        O      0.452800000000     0.749685000000     0.408635000000     0          
O        O      0.004345000000     0.708650000000     0.408460000000     0          
O        O      0.003890000000     0.761600000000     0.368000000000     0          
O        O      0.468100000000     0.716000000000     0.462820000000     0          
O        O      0.254860000000     0.759640000000     0.056785000000     0          
O        O      0.280955000000     0.819545000000     0.046115000000     0          
O        O      0.320295000000     0.766400000000     0.053550000000     0          
O        O      0.286285000000     0.789365000000     0.105895000000     0          
O        O      0.297200000000     0.750315000000     0.158635000000     0          
O        O      0.245655000000     0.791350000000     0.158460000000     0          
O        O      0.246110000000     0.738400000000     0.118000000000     0          
O        O      0.281900000000     0.784000000000     0.212820000000     0          
O        O      0.193215000000     0.745140000000     0.009640000000     0          
O        O      0.203885000000     0.719045000000     0.069545000000     0          
O        O      0.196450000000     0.679705000000     0.016400000000     0          
O        O      0.144105000000     0.713715000000     0.039365000000     0          
O        O      0.091365000000     0.702800000000     0.000315000000     0          
O        O      0.091540000000     0.754345000000     0.041350000000     0          
O        O      0.132000000000     0.753890000000     0.488400000000     0          
O        O      0.037180000000     0.718100000000     0.034000000000     0          
O        O      0.443215000000     0.504860000000     0.490360000000     0          
O        O      0.453885000000     0.530955000000     0.430455000000     0          
O        O      0.446450000000     0.570295000000     0.483600000000     0          
O        O      0.394105000000     0.536285000000     0.460635000000     0          
O        O      0.341365000000     0.547200000000     0.499685000000     0          
O        O      0.341540000000     0.995655000000     0.458650000000     0          
O        O      0.382000000000     0.996110000000     0.011600000000     0          
O        O      0.287180000000     0.531900000000     0.466000000000     0          
O        O      0.306785000000     0.995140000000     0.240360000000     0          
O        O      0.296115000000     0.969045000000     0.180455000000     0          
O        O      0.303550000000     0.929705000000     0.233600000000     0          
O        O      0.355895000000     0.963715000000     0.210635000000     0          
O        O      0.408635000000     0.952800000000     0.249685000000     0          
O        O      0.408460000000     0.504345000000     0.208650000000     0          
O        O      0.368000000000     0.503890000000     0.261600000000     0          
O        O      0.462820000000     0.968100000000     0.216000000000     0          
O        O      0.056785000000     0.754860000000     0.259640000000     0          
O        O      0.046115000000     0.780955000000     0.319545000000     0          
O        O      0.053550000000     0.820295000000     0.266400000000     0          
O        O      0.105895000000     0.786285000000     0.289365000000     0          
O        O      0.158635000000     0.797200000000     0.250315000000     0          
O        O      0.158460000000     0.745655000000     0.291350000000     0          
O        O      0.118000000000     0.746110000000     0.238400000000     0          
O        O      0.212820000000     0.781900000000     0.284000000000     0          
O        O      0.490360000000     0.806785000000     0.254860000000     0          
O        O      0.430455000000     0.796115000000     0.280955000000     0          
O        O      0.483600000000     0.803550000000     0.320295000000     0          
O        O      0.460635000000     0.855895000000     0.286285000000     0          
O        O      0.499685000000     0.908635000000     0.297200000000     0          
O        O      0.458650000000     0.908460000000     0.245655000000     0          
O        O      0.011600000000     0.868000000000     0.246110000000     0          
O        O      0.466000000000     0.962820000000     0.281900000000     0          
O        O      0.259640000000     0.693215000000     0.004860000000     0          
O        O      0.319545000000     0.703885000000     0.030955000000     0          
O        O      0.266400000000     0.696450000000     0.070295000000     0          
O        O      0.289365000000     0.644105000000     0.036285000000     0          
O        O      0.250315000000     0.591365000000     0.047200000000     0          
O        O      0.291350000000     0.591540000000     0.495655000000     0          
O        O      0.238400000000     0.632000000000     0.496110000000     0          
O        O      0.284000000000     0.537180000000     0.031900000000     0          
O        O      0.240360000000     0.943215000000     0.245140000000     0          
O        O      0.180455000000     0.953885000000     0.219045000000     0          
O        O      0.233600000000     0.946450000000     0.179705000000     0          
O        O      0.210635000000     0.894105000000     0.213715000000     0          
O        O      0.249685000000     0.841365000000     0.202800000000     0          
O        O      0.208650000000     0.841540000000     0.254345000000     0          
O        O      0.261600000000     0.882000000000     0.253890000000     0          
O        O      0.216000000000     0.787180000000     0.218100000000     0          
O        O      0.009640000000     0.556785000000     0.495140000000     0          
O        O      0.069545000000     0.546115000000     0.469045000000     0          
O        O      0.016400000000     0.553550000000     0.429705000000     0          
O        O      0.039365000000     0.605895000000     0.463715000000     0          
O        O      0.000315000000     0.658635000000     0.452800000000     0          
O        O      0.041350000000     0.658460000000     0.004345000000     0          
O        O      0.488400000000     0.618000000000     0.003890000000     0          
O        O      0.034000000000     0.712820000000     0.468100000000     0          
O        O      0.254860000000     0.990360000000     0.306785000000     0          
O        O      0.280955000000     0.930455000000     0.296115000000     0          
O        O      0.320295000000     0.983600000000     0.303550000000     0          
O        O      0.286285000000     0.960635000000     0.355895000000     0          
O        O      0.297200000000     0.999685000000     0.408635000000     0          
O        O      0.245655000000     0.958650000000     0.408460000000     0          
O        O      0.246110000000     0.511600000000     0.368000000000     0          
O        O      0.281900000000     0.966000000000     0.462820000000     0          
O        O      0.495140000000     0.509640000000     0.056785000000     0          
O        O      0.469045000000     0.569545000000     0.046115000000     0          
O        O      0.429705000000     0.516400000000     0.053550000000     0          
O        O      0.463715000000     0.539365000000     0.105895000000     0          
O        O      0.452800000000     0.500315000000     0.158635000000     0          
O        O      0.004345000000     0.541350000000     0.158460000000     0          
O        O      0.003890000000     0.988400000000     0.118000000000     0          
O        O      0.468100000000     0.534000000000     0.212820000000     0          
O        O      0.004860000000     0.759640000000     0.193215000000     0          
O        O      0.030955000000     0.819545000000     0.203885000000     0          
O        O      0.070295000000     0.766400000000     0.196450000000     0          
O        O      0.036285000000     0.789365000000     0.144105000000     0          
O        O      0.047200000000     0.750315000000     0.091365000000     0          
O        O      0.495655000000     0.791350000000     0.091540000000     0          
O        O      0.496110000000     0.738400000000     0.132000000000     0          
O        O      0.031900000000     0.784000000000     0.037180000000     0          
O        O      0.245140000000     0.740360000000     0.443215000000     0          
O        O      0.219045000000     0.680455000000     0.453885000000     0          
O        O      0.179705000000     0.733600000000     0.446450000000     0          
O        O      0.213715000000     0.710635000000     0.394105000000     0          
O        O      0.202800000000     0.749685000000     0.341365000000     0          
O        O      0.254345000000     0.708650000000     0.341540000000     0          
O        O      0.253890000000     0.761600000000     0.382000000000     0          
O        O      0.218100000000     0.716000000000     0.287180000000     0          
O        O      0.306785000000     0.754860000000     0.490360000000     0          
O        O      0.296115000000     0.780955000000     0.430455000000     0          
O        O      0.303550000000     0.820295000000     0.483600000000     0          
O        O      0.355895000000     0.786285000000     0.460635000000     0          
O        O      0.408635000000     0.797200000000     0.499685000000     0          
O        O      0.408460000000     0.745655000000     0.458650000000     0          
O        O      0.368000000000     0.746110000000     0.011600000000     0          
O        O      0.462820000000     0.781900000000     0.466000000000     0          
O        O      0.056785000000     0.995140000000     0.009640000000     0          
O        O      0.046115000000     0.969045000000     0.069545000000     0          
O        O      0.053550000000     0.929705000000     0.016400000000     0          
O        O      0.105895000000     0.963715000000     0.039365000000     0          
O        O      0.158635000000     0.952800000000     0.000315000000     0          
O        O      0.158460000000     0.504345000000     0.041350000000     0          
O        O      0.118000000000     0.503890000000     0.488400000000     0          
O        O      0.212820000000     0.968100000000     0.034000000000     0          
O        O      0.193215000000     0.504860000000     0.259640000000     0          
O        O      0.203885000000     0.530955000000     0.319545000000     0          
O        O      0.196450000000     0.570295000000     0.266400000000     0          
O        O      0.144105000000     0.536285000000     0.289365000000     0          
O        O      0.091365000000     0.547200000000     0.250315000000     0          
O        O      0.091540000000     0.995655000000     0.291350000000     0          
O        O      0.132000000000     0.996110000000     0.238400000000     0          
O        O      0.037180000000     0.531900000000     0.284000000000     0          
O        O      0.443215000000     0.745140000000     0.240360000000     0          
O        O      0.453885000000     0.719045000000     0.180455000000     0          
O        O      0.446450000000     0.679705000000     0.233600000000     0          
O        O      0.394105000000     0.713715000000     0.210635000000     0          
O        O      0.341365000000     0.702800000000     0.249685000000     0          
O        O      0.341540000000     0.754345000000     0.208650000000     0          
O        O      0.382000000000     0.753890000000     0.261600000000     0          
O        O      0.287180000000     0.718100000000     0.216000000000     0          
O        O      0.009640000000     0.693215000000     0.745140000000     0          
O        O      0.069545000000     0.703885000000     0.719045000000     0          
O        O      0.016400000000     0.696450000000     0.679705000000     0          
O        O      0.039365000000     0.644105000000     0.713715000000     0          
O        O      0.000315000000     0.591365000000     0.702800000000     0          
O        O      0.041350000000     0.591540000000     0.754345000000     0          
O        O      0.488400000000     0.632000000000     0.753890000000     0          
O        O      0.034000000000     0.537180000000     0.718100000000     0          
O        O      0.240360000000     0.806785000000     0.995140000000     0          
O        O      0.180455000000     0.796115000000     0.969045000000     0          
O        O      0.233600000000     0.803550000000     0.929705000000     0          
O        O      0.210635000000     0.855895000000     0.963715000000     0          
O        O      0.249685000000     0.908635000000     0.952800000000     0          
O        O      0.208650000000     0.908460000000     0.504345000000     0          
O        O      0.261600000000     0.868000000000     0.503890000000     0          
O        O      0.216000000000     0.962820000000     0.968100000000     0          
O        O      0.259640000000     0.556785000000     0.754860000000     0          
O        O      0.319545000000     0.546115000000     0.780955000000     0          
O        O      0.266400000000     0.553550000000     0.820295000000     0          
O        O      0.289365000000     0.605895000000     0.786285000000     0          
O        O      0.250315000000     0.658635000000     0.797200000000     0          
O        O      0.291350000000     0.658460000000     0.745655000000     0          
O        O      0.238400000000     0.618000000000     0.746110000000     0          
O        O      0.284000000000     0.712820000000     0.781900000000     0          
O        O      0.490360000000     0.943215000000     0.504860000000     0          
O        O      0.430455000000     0.953885000000     0.530955000000     0          
O        O      0.483600000000     0.946450000000     0.570295000000     0          
O        O      0.460635000000     0.894105000000     0.536285000000     0          
O        O      0.499685000000     0.841365000000     0.547200000000     0          
O        O      0.458650000000     0.841540000000     0.995655000000     0          
O        O      0.011600000000     0.882000000000     0.996110000000     0          
O        O      0.466000000000     0.787180000000     0.531900000000     0          
O        O      0.245140000000     0.509640000000     0.693215000000     0          
O        O      0.219045000000     0.569545000000     0.703885000000     0          
O        O      0.179705000000     0.516400000000     0.696450000000     0          
O        O      0.213715000000     0.539365000000     0.644105000000     0          
O        O      0.202800000000     0.500315000000     0.591365000000     0          
O        O      0.254345000000     0.541350000000     0.591540000000     0          
O        O      0.253890000000     0.988400000000     0.632000000000     0          
O        O      0.218100000000     0.534000000000     0.537180000000     0          
O        O      0.004860000000     0.990360000000     0.943215000000     0          
O        O      0.030955000000     0.930455000000     0.953885000000     0          
O        O      0.070295000000     0.983600000000     0.946450000000     0          
O        O      0.036285000000     0.960635000000     0.894105000000     0          
O        O      0.047200000000     0.999685000000     0.841365000000     0          
O        O      0.495655000000     0.958650000000     0.841540000000     0          
O        O      0.496110000000     0.511600000000     0.882000000000     0          
O        O      0.031900000000     0.966000000000     0.787180000000     0          
O        O      0.495140000000     0.740360000000     0.806785000000     0          
O        O      0.469045000000     0.680455000000     0.796115000000     0          
O        O      0.429705000000     0.733600000000     0.803550000000     0          
O        O      0.463715000000     0.710635000000     0.855895000000     0          
O        O      0.452800000000     0.749685000000     0.908635000000     0          
O        O      0.004345000000     0.708650000000     0.908460000000     0          
O        O      0.003890000000     0.761600000000     0.868000000000     0          
O        O      0.468100000000     0.716000000000     0.962820000000     0          
O        O      0.254860000000     0.759640000000     0.556785000000     0          
O        O      0.280955000000     0.819545000000     0.546115000000     0          
O        O      0.320295000000     0.766400000000     0.553550000000     0          
O        O      0.286285000000     0.789365000000     0.605895000000     0          
O        O      0.297200000000     0.750315000000     0.658635000000     0          
O        O      0.245655000000     0.791350000000     0.658460000000     0          
O        O      0.246110000000     0.738400000000     0.618000000000     0          
O        O      0.281900000000     0.784000000000     0.712820000000     0          
O        O      0.193215000000     0.745140000000     0.509640000000     0          
O        O      0.203885000000     0.719045000000     0.569545000000     0          
O        O      0.196450000000     0.679705000000     0.516400000000     0          
O        O      0.144105000000     0.713715000000     0.539365000000     0          
O        O      0.091365000000     0.702800000000     0.500315000000     0          
O        O      0.091540000000     0.754345000000     0.541350000000     0          
O        O      0.132000000000     0.753890000000     0.988400000000     0          
O        O      0.037180000000     0.718100000000     0.534000000000     0          
O        O      0.443215000000     0.504860000000     0.990360000000     0          
O        O      0.453885000000     0.530955000000     0.930455000000     0          
O        O      0.446450000000     0.570295000000     0.983600000000     0          
O        O      0.394105000000     0.536285000000     0.960635000000     0          
O        O      0.341365000000     0.547200000000     0.999685000000     0          
O        O      0.341540000000     0.995655000000     0.958650000000     0          
O        O      0.382000000000     0.996110000000     0.511600000000     0          
O        O      0.287180000000     0.531900000000     0.966000000000     0          
O        O      0.306785000000     0.995140000000     0.740360000000     0          
O        O      0.296115000000     0.969045000000     0.680455000000     0          
O        O      0.303550000000     0.929705000000     0.733600000000     0          
O        O      0.355895000000     0.963715000000     0.710635000000     0          
O        O      0.408635000000     0.952800000000     0.749685000000     0          
O        O      0.408460000000     0.504345000000     0.708650000000     0          
O        O      0.368000000000     0.503890000000     0.761600000000     0          
O        O      0.462820000000     0.968100000000     0.716000000000     0          
O        O      0.056785000000     0.754860000000     0.759640000000     0          
O        O      0.046115000000     0.780955000000     0.819545000000     0          
O        O      0.053550000000     0.820295000000     0.766400000000     0          
O        O      0.105895000000     0.786285000000     0.789365000000     0          
O        O      0.158635000000     0.797200000000     0.750315000000     0          
O        O      0.158460000000     0.745655000000     0.791350000000     0          
O        O      0.118000000000     0.746110000000     0.738400000000     0          
O        O      0.212820000000     0.781900000000     0.784000000000     0          
O        O      0.490360000000     0.806785000000     0.754860000000     0          
O        O      0.430455000000     0.796115000000     0.780955000000     0          
O        O      0.483600000000     0.803550000000     0.820295000000     0          
O        O      0.460635000000     0.855895000000     0.786285000000     0          
O        O      0.499685000000     0.908635000000     0.797200000000     0          
O        O      0.458650000000     0.908460000000     0.745655000000     0          
O        O      0.011600000000     0.868000000000     0.746110000000     0          
O        O      0.466000000000     0.962820000000     0.781900000000     0          
O        O      0.259640000000     0.693215000000     0.504860000000     0          
O        O      0.319545000000     0.703885000000     0.530955000000     0          
O        O      0.266400000000     0.696450000000     0.570295000000     0          
O        O      0.289365000000     0.644105000000     0.536285000000     0          
O        O      0.250315000000     0.591365000000     0.547200000000     0          
O        O      0.291350000000     0.591540000000     0.995655000000     0          
O        O      0.238400000000     0.632000000000     0.996110000000     0          
O        O      0.284000000000     0.537180000000     0.531900000000     0          
O        O      0.240360000000     0.943215000000     0.745140000000     0          
O        O      0.180455000000     0.953885000000     0.719045000000     0          
O        O      0.233600000000     0.946450000000     0.679705000000     0          
O        O      0.210635000000     0.894105000000     0.713715000000     0          
O        O      0.249685000000     0.841365000000     0.702800000000     0          
O        O      0.208650000000     0.841540000000     0.754345000000     0          
O        O      0.261600000000     0.882000000000     0.753890000000     0          
O        O      0.216000000000     0.787180000000     0.718100000000     0          
O        O      0.009640000000     0.556785000000     0.995140000000     0          
O        O      0.069545000000     0.546115000000     0.969045000000     0          
O        O      0.016400000000     0.553550000000     0.929705000000     0          
O        O      0.039365000000     0.605895000000     0.963715000000     0          
O        O      0.000315000000     0.658635000000     0.952800000000     0          
O        O      0.041350000000     0.658460000000     0.504345000000     0          
O        O      0.488400000000     0.618000000000     0.503890000000     0          
O        O      0.034000000000     0.712820000000     0.968100000000     0          
O        O      0.254860000000     0.990360000000     0.806785000000     0          
O        O      0.280955000000     0.930455000000     0.796115000000     0          
O        O      0.320295000000     0.983600000000     0.803550000000     0          
O        O      0.286285000000     0.960635000000     0.855895000000     0          
O        O      0.297200000000     0.999685000000     0.908635000000     0          
O        O      0.245655000000     0.958650000000     0.908460000000     0          
O        O      0.246110000000     0.511600000000     0.868000000000     0          
O        O      0.281900000000     0.966000000000     0.962820000000     0          
O        O      0.495140000000     0.509640000000     0.556785000000     0          
O        O      0.469045000000     0.569545000000     0.546115000000     0          
O        O      0.429705000000     0.516400000000     0.553550000000     0          
O        O      0.463715000000     0.539365000000     0.605895000000     0          
O        O      0.452800000000     0.500315000000     0.658635000000     0          
O        O      0.004345000000     0.541350000000     0.658460000000     0          
O        O      0.003890000000     0.988400000000     0.618000000000     0          
O        O      0.468100000000     0.534000000000     0.712820000000     0          
O        O      0.004860000000     0.759640000000     0.693215000000     0          
O        O      0.030955000000     0.819545000000     0.703885000000     0          
O        O      0.070295000000     0.766400000000     0.696450000000     0          
O        O      0.036285000000     0.789365000000     0.644105000000     0          
O        O      0.047200000000     0.750315000000     0.591365000000     0          
O        O      0.495655000000     0.791350000000     0.591540000000     0          
O        O      0.496110000000     0.738400000000     0.632000000000     0          
O        O      0.031900000000     0.784000000000     0.537180000000     0          
O        O      0.245140000000     0.740360000000     0.943215000000     0          
O        O      0.219045000000     0.680455000000     0.953885000000     0          
O        O      0.179705000000     0.733600000000     0.946450000000     0          
O        O      0.213715000000     0.710635000000     0.894105000000     0          
O        O      0.202800000000     0.749685000000     0.841365000000     0          
O        O      0.254345000000     0.708650000000     0.841540000000     0          
O        O      0.253890000000     0.761600000000     0.882000000000     0          
O        O      0.218100000000     0.716000000000     0.787180000000     0          
O        O      0.306785000000     0.754860000000     0.990360000000     0          
O        O      0.296115000000     0.780955000000     0.930455000000     0          
O        O      0.303550000000     0.820295000000     0.983600000000     0          
O        O      0.355895000000     0.786285000000     0.960635000000     0          
O        O      0.408635000000     0.797200000000     0.999685000000     0          
O        O      0.408460000000     0.745655000000     0.958650000000     0          
O        O      0.368000000000     0.746110000000     0.511600000000     0          
O        O      0.462820000000     0.781900000000     0.966000000000     0          
O        O      0.056785000000     0.995140000000     0.509640000000     0          
O        O      0.046115000000     0.969045000000     0.569545000000     0          
O        O      0.053550000000     0.929705000000     0.516400000000     0          
O        O      0.105895000000     0.963715000000     0.539365000000     0          
O        O      0.158635000000     0.952800000000     0.500315000000     0          
O        O      0.158460000000     0.504345000000     0.541350000000     0          
O        O      0.118000000000     0.503890000000     0.988400000000     0          
O        O      0.212820000000     0.968100000000     0.534000000000     0          
O        O      0.193215000000     0.504860000000     0.759640000000     0          
O        O      0.203885000000     0.530955000000     0.819545000000     0          
O        O      0.196450000000     0.570295000000     0.766400000000     0          
O        O      0.144105000000     0.536285000000     0.789365000000     0          
O        O      0.091365000000     0.547200000000     0.750315000000     0          
O        O      0.091540000000     0.995655000000     0.791350000000     0          
O        O      0.132000000000     0.996110000000     0.738400000000     0          
O        O      0.037180000000     0.531900000000     0.784000000000     0          
O        O      0.443215000000     0.745140000000     0.740360000000     0          
O        O      0.453885000000     0.719045000000     0.680455000000     0          
O        O      0.446450000000     0.679705000000     0.733600000000     0          
O        O      0.394105000000     0.713715000000     0.710635000000     0          
O        O      0.341365000000     0.702800000000     0.749685000000     0          
O        O      0.341540000000     0.754345000000     0.708650000000     0          
O        O      0.382000000000     0.753890000000     0.761600000000     0          
O        O      0.287180000000     0.718100000000     0.716000000000     0          
O        O      0.509640000000     0.193215000000     0.245140000000     0          
O        O      0.569545000000     0.203885000000     0.219045000000     0          
O        O      0.516400000000     0.196450000000     0.179705000000     0          
O        O      0.539365000000     0.144105000000     0.213715000000     0          
O        O      0.500315000000     0.091365000000     0.202800000000     0          
O        O      0.541350000000     0.091540000000     0.254345000000     0          
O        O      0.988400000000     0.132000000000     0.253890000000     0          
O        O      0.534000000000     0.037180000000     0.218100000000     0          
O        O      0.740360000000     0.306785000000     0.495140000000     0          
O        O      0.680455000000     0.296115000000     0.469045000000     0          
O        O      0.733600000000     0.303550000000     0.429705000000     0          
O        O      0.710635000000     0.355895000000     0.463715000000     0          
O        O      0.749685000000     0.408635000000     0.452800000000     0          
O        O      0.708650000000     0.408460000000     0.004345000000     0          
O        O      0.761600000000     0.368000000000     0.003890000000     0          
O        O      0.716000000000     0.462820000000     0.468100000000     0          
O        O      0.759640000000     0.056785000000     0.254860000000     0          
O        O      0.819545000000     0.046115000000     0.280955000000     0          
O        O      0.766400000000     0.053550000000     0.320295000000     0          
O        O      0.789365000000     0.105895000000     0.286285000000     0          
O        O      0.750315000000     0.158635000000     0.297200000000     0          
O        O      0.791350000000     0.158460000000     0.245655000000     0          
O        O      0.738400000000     0.118000000000     0.246110000000     0          
O        O      0.784000000000     0.212820000000     0.281900000000     0          
O        O      0.990360000000     0.443215000000     0.004860000000     0          
O        O      0.930455000000     0.453885000000     0.030955000000     0          
O        O      0.983600000000     0.446450000000     0.070295000000     0          
O        O      0.960635000000     0.394105000000     0.036285000000     0          
O        O      0.999685000000     0.341365000000     0.047200000000     0          
O        O      0.958650000000     0.341540000000     0.495655000000     0          
O        O      0.511600000000     0.382000000000     0.496110000000     0          
O        O      0.966000000000     0.287180000000     0.031900000000     0          
O        O      0.745140000000     0.009640000000     0.193215000000     0          
O        O      0.719045000000     0.069545000000     0.203885000000     0          
O        O      0.679705000000     0.016400000000     0.196450000000     0          
O        O      0.713715000000     0.039365000000     0.144105000000     0          
O        O      0.702800000000     0.000315000000     0.091365000000     0          
O        O      0.754345000000     0.041350000000     0.091540000000     0          
O        O      0.753890000000     0.488400000000     0.132000000000     0          
O        O      0.718100000000     0.034000000000     0.037180000000     0          
O        O      0.504860000000     0.490360000000     0.443215000000     0          
O        O      0.530955000000     0.430455000000     0.453885000000     0          
O        O      0.570295000000     0.483600000000     0.446450000000     0          
O        O      0.536285000000     0.460635000000     0.394105000000     0          
O        O      0.547200000000     0.499685000000     0.341365000000     0          
O        O      0.995655000000     0.458650000000     0.341540000000     0          
O        O      0.996110000000     0.011600000000     0.382000000000     0          
O        O      0.531900000000     0.466000000000     0.287180000000     0          
O        O      0.995140000000     0.240360000000     0.306785000000     0          
O        O      0.969045000000     0.180455000000     0.296115000000     0          
O        O      0.929705000000     0.233600000000     0.303550000000     0          
O        O      0.963715000000     0.210635000000     0.355895000000     0          
O        O      0.952800000000     0.249685000000     0.408635000000     0          
O        O      0.504345000000     0.208650000000     0.408460000000     0          
O        O      0.503890000000     0.261600000000     0.368000000000     0          
O        O      0.968100000000     0.216000000000     0.462820000000     0          
O        O      0.754860000000     0.259640000000     0.056785000000     0          
O        O      0.780955000000     0.319545000000     0.046115000000     0          
O        O      0.820295000000     0.266400000000     0.053550000000     0          
O        O      0.786285000000     0.289365000000     0.105895000000     0          
O        O      0.797200000000     0.250315000000     0.158635000000     0          
O        O      0.745655000000     0.291350000000     0.158460000000     0          
O        O      0.746110000000     0.238400000000     0.118000000000     0          
O        O      0.781900000000     0.284000000000     0.212820000000     0          
O        O      0.693215000000     0.245140000000     0.009640000000     0          
O        O      0.703885000000     0.219045000000     0.069545000000     0          
O        O      0.696450000000     0.179705000000     0.016400000000     0          
O        O      0.644105000000     0.213715000000     0.039365000000     0          
O        O      0.591365000000     0.202800000000     0.000315000000     0          
O        O      0.591540000000     0.254345000000     0.041350000000     0          
O        O      0.632000000000     0.253890000000     0.488400000000     0          
O        O      0.537180000000     0.218100000000     0.034000000000     0          
O        O      0.943215000000     0.004860000000     0.490360000000     0          
O        O      0.953885000000     0.030955000000     0.430455000000     0          
O        O      0.946450000000     0.070295000000     0.483600000000     0          
O        O      0.894105000000     0.036285000000     0.460635000000     0          
O        O      0.841365000000     0.047200000000     0.499685000000     0          
O        O      0.841540000000     0.495655000000     0.458650000000     0          
O        O      0.882000000000     0.496110000000     0.011600000000     0          
O        O      0.787180000000     0.031900000000     0.466000000000     0          
O        O      0.806785000000     0.495140000000     0.240360000000     0          
O        O      0.796115000000     0.469045000000     0.180455000000     0          
O        O      0.803550000000     0.429705000000     0.233600000000     0          
O        O      0.855895000000     0.463715000000     0.210635000000     0          
O        O      0.908635000000     0.452800000000     0.249685000000     0          
O        O      0.908460000000     0.004345000000     0.208650000000     0          
O        O      0.868000000000     0.003890000000     0.261600000000     0          
O        O      0.962820000000     0.468100000000     0.216000000000     0          
O        O      0.556785000000     0.254860000000     0.259640000000     0          
O        O      0.546115000000     0.280955000000     0.319545000000     0          
O        O      0.553550000000     0.320295000000     0.266400000000     0          
O        O      0.605895000000     0.286285000000     0.289365000000     0          
O        O      0.658635000000     0.297200000000     0.250315000000     0          
O        O      0.658460000000     0.245655000000     0.291350000000     0          
O        O      0.618000000000     0.246110000000     0.238400000000     0          
O        O      0.712820000000     0.281900000000     0.284000000000     0          
O        O      0.990360000000     0.306785000000     0.254860000000     0          
O        O      0.930455000000     0.296115000000     0.280955000000     0          
O        O      0.983600000000     0.303550000000     0.320295000000     0          
O        O      0.960635000000     0.355895000000     0.286285000000     0          
O        O      0.999685000000     0.408635000000     0.297200000000     0          
O        O      0.958650000000     0.408460000000     0.245655000000     0          
O        O      0.511600000000     0.368000000000     0.246110000000     0          
O        O      0.966000000000     0.462820000000     0.281900000000     0          
O        O      0.759640000000     0.193215000000     0.004860000000     0          
O        O      0.819545000000     0.203885000000     0.030955000000     0          
O        O      0.766400000000     0.196450000000     0.070295000000     0          
O        O      0.789365000000     0.144105000000     0.036285000000     0          
O        O      0.750315000000     0.091365000000     0.047200000000     0          
O        O      0.791350000000     0.091540000000     0.495655000000     0          
O        O      0.738400000000     0.132000000000     0.496110000000     0          
O        O      0.784000000000     0.037180000000     0.031900000000     0          
O        O      0.740360000000     0.443215000000     0.245140000000     0          
O        O      0.680455000000     0.453885000000     0.219045000000     0          
O        O      0.733600000000     0.446450000000     0.179705000000     0          
O        O      0.710635000000     0.394105000000     0.213715000000     0          
O        O      0.749685000000     0.341365000000     0.202800000000     0          
O        O      0.708650000000     0.341540000000     0.254345000000     0          
O        O      0.761600000000     0.382000000000     0.253890000000     0          
O        O      0.716000000000     0.287180000000     0.218100000000     0          
O        O      0.509640000000     0.056785000000     0.495140000000     0          
O        O      0.569545000000     0.046115000000     0.469045000000     0          
O        O      0.516400000000     0.053550000000     0.429705000000     0          
O        O      0.539365000000     0.105895000000     0.463715000000     0          
O        O      0.500315000000     0.158635000000     0.452800000000     0          
O        O      0.541350000000     0.158460000000     0.004345000000     0          
O        O      0.988400000000     0.118000000000     0.003890000000     0          
O        O      0.534000000000     0.212820000000     0.468100000000     0          
O        O      0.754860000000     0.490360000000     0.306785000000     0          
O        O      0.780955000000     0.430455000000     0.296115000000     0          
O        O      0.820295000000     0.483600000000     0.303550000000     0          
O        O      0.786285000000     0.460635000000     0.355895000000     0          
O        O      0.797200000000     0.499685000000     0.408635000000     0          
O        O      0.745655000000     0.458650000000     0.408460000000     0          
O        O      0.746110000000     0.011600000000     0.368000000000     0          
O        O      0.781900000000     0.466000000000     0.462820000000     0          
O        O      0.995140000000     0.009640000000     0.056785000000     0          
O        O      0.969045000000     0.069545000000     0.046115000000     0          
O        O      0.929705000000     0.016400000000     0.053550000000     0          
O        O      0.963715000000     0.039365000000     0.105895000000     0          
O        O      0.952800000000     0.000315000000     0.158635000000     0          
O        O      0.504345000000     0.041350000000     0.158460000000     0          
O        O      0.503890000000     0.488400000000     0.118000000000     0          
O        O      0.968100000000     0.034000000000     0.212820000000     0          
O        O      0.504860000000     0.259640000000     0.193215000000     0          
O        O      0.530955000000     0.319545000000     0.203885000000     0          
O        O      0.570295000000     0.266400000000     0.196450000000     0          
O        O      0.536285000000     0.289365000000     0.144105000000     0          
O        O      0.547200000000     0.250315000000     0.091365000000     0          
O        O      0.995655000000     0.291350000000     0.091540000000     0          
O        O      0.996110000000     0.238400000000     0.132000000000     0          
O        O      0.531900000000     0.284000000000     0.037180000000     0          
O        O      0.745140000000     0.240360000000     0.443215000000     0          
O        O      0.719045000000     0.180455000000     0.453885000000     0          
O        O      0.679705000000     0.233600000000     0.446450000000     0          
O        O      0.713715000000     0.210635000000     0.394105000000     0          
O        O      0.702800000000     0.249685000000     0.341365000000     0          
O        O      0.754345000000     0.208650000000     0.341540000000     0          
O        O      0.753890000000     0.261600000000     0.382000000000     0          
O        O      0.718100000000     0.216000000000     0.287180000000     0          
O        O      0.806785000000     0.254860000000     0.490360000000     0          
O        O      0.796115000000     0.280955000000     0.430455000000     0          
O        O      0.803550000000     0.320295000000     0.483600000000     0          
O        O      0.855895000000     0.286285000000     0.460635000000     0          
O        O      0.908635000000     0.297200000000     0.499685000000     0          
O        O      0.908460000000     0.245655000000     0.458650000000     0          
O        O      0.868000000000     0.246110000000     0.011600000000     0          
O        O      0.962820000000     0.281900000000     0.466000000000     0          
O        O      0.556785000000     0.495140000000     0.009640000000     0          
O        O      0.546115000000     0.469045000000     0.069545000000     0          
O        O      0.553550000000     0.429705000000     0.016400000000     0          
O        O      0.605895000000     0.463715000000     0.039365000000     0          
O        O      0.658635000000     0.452800000000     0.000315000000     0          
O        O      0.658460000000     0.004345000000     0.041350000000     0          
O        O      0.618000000000     0.003890000000     0.488400000000     0          
O        O      0.712820000000     0.468100000000     0.034000000000     0          
O        O      0.693215000000     0.004860000000     0.259640000000     0          
O        O      0.703885000000     0.030955000000     0.319545000000     0          
O        O      0.696450000000     0.070295000000     0.266400000000     0          
O        O      0.644105000000     0.036285000000     0.289365000000     0          
O        O      0.591365000000     0.047200000000     0.250315000000     0          
O        O      0.591540000000     0.495655000000     0.291350000000     0          
O        O      0.632000000000     0.496110000000     0.238400000000     0          
O        O      0.537180000000     0.031900000000     0.284000000000     0          
O        O      0.943215000000     0.245140000000     0.240360000000     0          
O        O      0.953885000000     0.219045000000     0.180455000000     0          
O        O      0.946450000000     0.179705000000     0.233600000000     0          
O        O      0.894105000000     0.213715000000     0.210635000000     0          
O        O      0.841365000000     0.202800000000     0.249685000000     0          
O        O      0.841540000000     0.254345000000     0.208650000000     0          
O        O      0.882000000000     0.253890000000     0.261600000000     0          
O        O      0.787180000000     0.218100000000     0.216000000000     0          
O        O      0.509640000000     0.193215000000     0.745140000000     0          
O        O      0.569545000000     0.203885000000     0.719045000000     0          
O        O      0.516400000000     0.196450000000     0.679705000000     0          
O        O      0.539365000000     0.144105000000     0.713715000000     0          
O        O      0.500315000000     0.091365000000     0.702800000000     0          
O        O      0.541350000000     0.091540000000     0.754345000000     0          
O        O      0.988400000000     0.132000000000     0.753890000000     0          
O        O      0.534000000000     0.037180000000     0.718100000000     0          
O        O      0.740360000000     0.306785000000     0.995140000000     0          
O        O      0.680455000000     0.296115000000     0.969045000000     0          
O        O      0.733600000000     0.303550000000     0.929705000000     0          
O        O      0.710635000000     0.355895000000     0.963715000000     0          
O        O      0.749685000000     0.408635000000     0.952800000000     0          
O        O      0.708650000000     0.408460000000     0.504345000000     0          
O        O      0.761600000000     0.368000000000     0.503890000000     0          
O        O      0.716000000000     0.462820000000     0.968100000000     0          
O        O      0.759640000000     0.056785000000     0.754860000000     0          
O        O      0.819545000000     0.046115000000     0.780955000000     0          
O        O      0.766400000000     0.053550000000     0.820295000000     0          
O        O      0.789365000000     0.105895000000     0.786285000000     0          
O        O      0.750315000000     0.158635000000     0.797200000000     0          
O        O      0.791350000000     0.158460000000     0.745655000000     0          
O        O      0.738400000000     0.118000000000     0.746110000000     0          
O        O      0.784000000000     0.212820000000     0.781900000000     0          
O        O      0.990360000000     0.443215000000     0.504860000000     0          
O        O      0.930455000000     0.453885000000     0.530955000000     0          
O        O      0.983600000000     0.446450000000     0.570295000000     0          
O        O      0.960635000000     0.394105000000     0.536285000000     0          
O        O      0.999685000000     0.341365000000     0.547200000000     0          
O        O      0.958650000000     0.341540000000     0.995655000000     0          
O        O      0.511600000000     0.382000000000     0.996110000000     0          
O        O      0.966000000000     0.287180000000     0.531900000000     0          
O        O      0.745140000000     0.009640000000     0.693215000000     0          
O        O      0.719045000000     0.069545000000     0.703885000000     0          
O        O      0.679705000000     0.016400000000     0.696450000000     0          
O        O      0.713715000000     0.039365000000     0.644105000000     0          
O        O      0.702800000000     0.000315000000     0.591365000000     0          
O        O      0.754345000000     0.041350000000     0.591540000000     0          
O        O      0.753890000000     0.488400000000     0.632000000000     0          
O        O      0.718100000000     0.034000000000     0.537180000000     0          
O        O      0.504860000000     0.490360000000     0.943215000000     0          
O        O      0.530955000000     0.430455000000     0.953885000000     0          
O        O      0.570295000000     0.483600000000     0.946450000000     0          
O        O      0.536285000000     0.460635000000     0.894105000000     0          
O        O      0.547200000000     0.499685000000     0.841365000000     0          
O        O      0.995655000000     0.458650000000     0.841540000000     0          
O        O      0.996110000000     0.011600000000     0.882000000000     0          
O        O      0.531900000000     0.466000000000     0.787180000000     0          
O        O      0.995140000000     0.240360000000     0.806785000000     0          
O        O      0.969045000000     0.180455000000     0.796115000000     0          
O        O      0.929705000000     0.233600000000     0.803550000000     0          
O        O      0.963715000000     0.210635000000     0.855895000000     0          
O        O      0.952800000000     0.249685000000     0.908635000000     0          
O        O      0.504345000000     0.208650000000     0.908460000000     0          
O        O      0.503890000000     0.261600000000     0.868000000000     0          
O        O      0.968100000000     0.216000000000     0.962820000000     0          
O        O      0.754860000000     0.259640000000     0.556785000000     0          
O        O      0.780955000000     0.319545000000     0.546115000000     0          
O        O      0.820295000000     0.266400000000     0.553550000000     0          
O        O      0.786285000000     0.289365000000     0.605895000000     0          
O        O      0.797200000000     0.250315000000     0.658635000000     0          
O        O      0.745655000000     0.291350000000     0.658460000000     0          
O        O      0.746110000000     0.238400000000     0.618000000000     0          
O        O      0.781900000000     0.284000000000     0.712820000000     0          
O        O      0.693215000000     0.245140000000     0.509640000000     0          
O        O      0.703885000000     0.219045000000     0.569545000000     0          
O        O      0.696450000000     0.179705000000     0.516400000000     0          
O        O      0.644105000000     0.213715000000     0.539365000000     0          
O        O      0.591365000000     0.202800000000     0.500315000000     0          
O        O      0.591540000000     0.254345000000     0.541350000000     0          
O        O      0.632000000000     0.253890000000     0.988400000000     0          
O        O      0.537180000000     0.218100000000     0.534000000000     0          
O        O      0.943215000000     0.004860000000     0.990360000000     0          
O        O      0.953885000000     0.030955000000     0.930455000000     0          
O        O      0.946450000000     0.070295000000     0.983600000000     0          
O        O      0.894105000000     0.036285000000     0.960635000000     0          
O        O      0.841365000000     0.047200000000     0.999685000000     0          
O        O      0.841540000000     0.495655000000     0.958650000000     0          
O        O      0.882000000000     0.496110000000     0.511600000000     0          
O        O      0.787180000000     0.031900000000     0.966000000000     0          
O        O      0.806785000000     0.495140000000     0.740360000000     0          
O        O      0.796115000000     0.469045000000     0.680455000000     0          
O        O      0.803550000000     0.429705000000     0.733600000000     0          
O        O      0.855895000000     0.463715000000     0.710635000000     0          
O        O      0.908635000000     0.452800000000     0.749685000000     0          
O        O      0.908460000000     0.004345000000     0.708650000000     0          
O        O      0.868000000000     0.003890000000     0.761600000000     0          
O        O      0.962820000000     0.468100000000     0.716000000000     0          
O        O      0.556785000000     0.254860000000     0.759640000000     0          
O        O      0.546115000000     0.280955000000     0.819545000000     0          
O        O      0.553550000000     0.320295000000     0.766400000000     0          
O        O      0.605895000000     0.286285000000     0.789365000000     0          
O        O      0.658635000000     0.297200000000     0.750315000000     0          
O        O      0.658460000000     0.245655000000     0.791350000000     0          
O        O      0.618000000000     0.246110000000     0.738400000000     0          
O        O      0.712820000000     0.281900000000     0.784000000000     0          
O        O      0.990360000000     0.306785000000     0.754860000000     0          
O        O      0.930455000000     0.296115000000     0.780955000000     0          
O        O      0.983600000000     0.303550000000     0.820295000000     0          
O        O      0.960635000000     0.355895000000     0.786285000000     0          
O        O      0.999685000000     0.408635000000     0.797200000000     0          
O        O      0.958650000000     0.408460000000     0.745655000000     0          
O        O      0.511600000000     0.368000000000     0.746110000000     0          
O        O      0.966000000000     0.462820000000     0.781900000000     0          
O        O      0.759640000000     0.193215000000     0.504860000000     0          
O        O      0.819545000000     0.203885000000     0.530955000000     0          
O        O      0.766400000000     0.196450000000     0.570295000000     0          
O        O      0.789365000000     0.144105000000     0.536285000000     0          
O        O      0.750315000000     0.091365000000     0.547200000000     0          
O        O      0.791350000000     0.091540000000     0.995655000000     0          
O        O      0.738400000000     0.132000000000     0.996110000000     0          
O        O      0.784000000000     0.037180000000     0.531900000000     0          
O        O      0.740360000000     0.443215000000     0.745140000000     0          
O        O      0.680455000000     0.453885000000     0.719045000000     0          
O        O      0.733600000000     0.446450000000     0.679705000000     0          
O        O      0.710635000000     0.394105000000     0.713715000000     0          
O        O      0.749685000000     0.341365000000     0.702800000000     0          
O        O      0.708650000000     0.341540000000     0.754345000000     0          
O        O      0.761600000000     0.382000000000     0.753890000000     0          
O        O      0.716000000000     0.287180000000     0.718100000000     0          
O        O      0.509640000000     0.056785000000     0.995140000000     0          
O        O      0.569545000000     0.046115000000     0.969045000000     0          
O        O      0.516400000000     0.053550000000     0.929705000000     0          
O        O      0.539365000000     0.105895000000     0.963715000000     0          
O        O      0.500315000000     0.158635000000     0.952800000000     0          
O        O      0.541350000000     0.158460000000     0.504345000000     0          
O        O      0.988400000000     0.118000000000     0.503890000000     0          
O        O      0.534000000000     0.212820000000     0.968100000000     0          
O        O      0.754860000000     0.490360000000     0.806785000000     0          
O        O      0.780955000000     0.430455000000     0.796115000000     0          
O        O      0.820295000000     0.483600000000     0.803550000000     0          
O        O      0.786285000000     0.460635000000     0.855895000000     0          
O        O      0.797200000000     0.499685000000     0.908635000000     0          
O        O      0.745655000000     0.458650000000     0.908460000000     0          
O        O      0.746110000000     0.011600000000     0.868000000000     0          
O        O      0.781900000000     0.466000000000     0.962820000000     0          
O        O      0.995140000000     0.009640000000     0.556785000000     0          
O        O      0.969045000000     0.069545000000     0.546115000000     0          
O        O      0.929705000000     0.016400000000     0.553550000000     0          
O        O      0.963715000000     0.039365000000     0.605895000000     0          
O        O      0.952800000000     0.000315000000     0.658635000000     0          
O        O      0.504345000000     0.041350000000     0.658460000000     0          
O        O      0.503890000000     0.488400000000     0.618000000000     0          
O        O      0.968100000000     0.034000000000     0.712820000000     0          
O        O      0.504860000000     0.259640000000     0.693215000000     0          
O        O      0.530955000000     0.319545000000     0.703885000000     0          
O        O      0.570295000000     0.266400000000     0.696450000000     0          
O        O      0.536285000000     0.289365000000     0.644105000000     0          
O        O      0.547200000000     0.250315000000     0.591365000000     0          
O        O      0.995655000000     0.291350000000     0.591540000000     0          
O        O      0.996110000000     0.238400000000     0.632000000000     0          
O        O      0.531900000000     0.284000000000     0.537180000000     0          
O        O      0.745140000000     0.240360000000     0.943215000000     0          
O        O      0.719045000000     0.180455000000     0.953885000000     0          
O        O      0.679705000000     0.233600000000     0.946450000000     0          
O        O      0.713715000000     0.210635000000     0.894105000000     0          
O        O      0.702800000000     0.249685000000     0.841365000000     0          
O        O      0.754345000000     0.208650000000     0.841540000000     0          
O        O      0.753890000000     0.261600000000     0.882000000000     0          
O        O      0.718100000000     0.216000000000     0.787180000000     0          
O        O      0.806785000000     0.254860000000     0.990360000000     0          
O        O      0.796115000000     0.280955000000     0.930455000000     0          
O        O      0.803550000000     0.320295000000     0.983600000000     0          
O        O      0.855895000000     0.286285000000     0.960635000000     0          
O        O      0.908635000000     0.297200000000     0.999685000000     0          
O        O      0.908460000000     0.245655000000     0.958650000000     0          
O        O      0.868000000000     0.246110000000     0.511600000000     0          
O        O      0.962820000000     0.281900000000     0.966000000000     0          
O        O      0.556785000000     0.495140000000     0.509640000000     0          
O        O      0.546115000000     0.469045000000     0.569545000000     0          
O        O      0.553550000000     0.429705000000     0.516400000000     0          
O        O      0.605895000000     0.463715000000     0.539365000000     0          
O        O      0.658635000000     0.452800000000     0.500315000000     0          
O        O      0.658460000000     0.004345000000     0.541350000000     0          
O        O      0.618000000000     0.003890000000     0.988400000000     0          
O        O      0.712820000000     0.468100000000     0.534000000000     0          
O        O      0.693215000000     0.004860000000     0.759640000000     0          
O        O      0.703885000000     0.030955000000     0.819545000000     0          
O        O      0.696450000000     0.070295000000     0.766400000000     0          
O        O      0.644105000000     0.036285000000     0.789365000000     0          
O        O      0.591365000000     0.047200000000     0.750315000000     0          
O        O      0.591540000000     0.495655000000     0.791350000000     0          
O        O      0.632000000000     0.496110000000     0.738400000000     0          
O        O      0.537180000000     0.031900000000     0.784000000000     0          
O        O      0.943215000000     0.245140000000     0.740360000000     0          
O        O      0.953885000000     0.219045000000     0.680455000000     0          
O        O      0.946450000000     0.179705000000     0.733600000000     0          
O        O      0.894105000000     0.213715000000     0.710635000000     0          
O        O      0.841365000000     0.202800000000     0.749685000000     0          
O        O      0.841540000000     0.254345000000     0.708650000000     0          
O        O      0.882000000000     0.253890000000     0.761600000000     0          
O        O      0.787180000000     0.218100000000     0.716000000000     0          
O        O      0.509640000000     0.693215000000     0.245140000000     0          
O        O      0.569545000000     0.703885000000     0.219045000000     0          
O        O      0.516400000000     0.696450000000     0.179705000000     0          
O        O      0.539365000000     0.644105000000     0.213715000000     0          
O        O      0.500315000000     0.591365000000     0.202800000000     0          
O        O      0.541350000000     0.591540000000     0.254345000000     0          
O        O      0.988400000000     0.632000000000     0.253890000000     0          
O        O      0.534000000000     0.537180000000     0.218100000000     0          
O        O      0.740360000000     0.806785000000     0.495140000000     0          
O        O      0.680455000000     0.796115000000     0.469045000000     0          
O        O      0.733600000000     0.803550000000     0.429705000000     0          
O        O      0.710635000000     0.855895000000     0.463715000000     0          
O        O      0.749685000000     0.908635000000     0.452800000000     0          
O        O      0.708650000000     0.908460000000     0.004345000000     0          
O        O      0.761600000000     0.868000000000     0.003890000000     0          
O        O      0.716000000000     0.962820000000     0.468100000000     0          
O        O      0.759640000000     0.556785000000     0.254860000000     0          
O        O      0.819545000000     0.546115000000     0.280955000000     0          
O        O      0.766400000000     0.553550000000     0.320295000000     0          
O        O      0.789365000000     0.605895000000     0.286285000000     0          
O        O      0.750315000000     0.658635000000     0.297200000000     0          
O        O      0.791350000000     0.658460000000     0.245655000000     0          
O        O      0.738400000000     0.618000000000     0.246110000000     0          
O        O      0.784000000000     0.712820000000     0.281900000000     0          
O        O      0.990360000000     0.943215000000     0.004860000000     0          
O        O      0.930455000000     0.953885000000     0.030955000000     0          
O        O      0.983600000000     0.946450000000     0.070295000000     0          
O        O      0.960635000000     0.894105000000     0.036285000000     0          
O        O      0.999685000000     0.841365000000     0.047200000000     0          
O        O      0.958650000000     0.841540000000     0.495655000000     0          
O        O      0.511600000000     0.882000000000     0.496110000000     0          
O        O      0.966000000000     0.787180000000     0.031900000000     0          
O        O      0.745140000000     0.509640000000     0.193215000000     0          
O        O      0.719045000000     0.569545000000     0.203885000000     0          
O        O      0.679705000000     0.516400000000     0.196450000000     0          
O        O      0.713715000000     0.539365000000     0.144105000000     0          
O        O      0.702800000000     0.500315000000     0.091365000000     0          
O        O      0.754345000000     0.541350000000     0.091540000000     0          
O        O      0.753890000000     0.988400000000     0.132000000000     0          
O        O      0.718100000000     0.534000000000     0.037180000000     0          
O        O      0.504860000000     0.990360000000     0.443215000000     0          
O        O      0.530955000000     0.930455000000     0.453885000000     0          
O        O      0.570295000000     0.983600000000     0.446450000000     0          
O        O      0.536285000000     0.960635000000     0.394105000000     0          
O        O      0.547200000000     0.999685000000     0.341365000000     0          
O        O      0.995655000000     0.958650000000     0.341540000000     0          
O        O      0.996110000000     0.511600000000     0.382000000000     0          
O        O      0.531900000000     0.966000000000     0.287180000000     0          
O        O      0.995140000000     0.740360000000     0.306785000000     0          
O        O      0.969045000000     0.680455000000     0.296115000000     0          
O        O      0.929705000000     0.733600000000     0.303550000000     0          
O        O      0.963715000000     0.710635000000     0.355895000000     0          
O        O      0.952800000000     0.749685000000     0.408635000000     0          
O        O      0.504345000000     0.708650000000     0.408460000000     0          
O        O      0.503890000000     0.761600000000     0.368000000000     0          
O        O      0.968100000000     0.716000000000     0.462820000000     0          
O        O      0.754860000000     0.759640000000     0.056785000000     0          
O        O      0.780955000000     0.819545000000     0.046115000000     0          
O        O      0.820295000000     0.766400000000     0.053550000000     0          
O        O      0.786285000000     0.789365000000     0.105895000000     0          
O        O      0.797200000000     0.750315000000     0.158635000000     0          
O        O      0.745655000000     0.791350000000     0.158460000000     0          
O        O      0.746110000000     0.738400000000     0.118000000000     0          
O        O      0.781900000000     0.784000000000     0.212820000000     0          
O        O      0.693215000000     0.745140000000     0.009640000000     0          
O        O      0.703885000000     0.719045000000     0.069545000000     0          
O        O      0.696450000000     0.679705000000     0.016400000000     0          
O        O      0.644105000000     0.713715000000     0.039365000000     0          
O        O      0.591365000000     0.702800000000     0.000315000000     0          
O        O      0.591540000000     0.754345000000     0.041350000000     0          
O        O      0.632000000000     0.753890000000     0.488400000000     0          
O        O      0.537180000000     0.718100000000     0.034000000000     0          
O        O      0.943215000000     0.504860000000     0.490360000000     0          
O        O      0.953885000000     0.530955000000     0.430455000000     0          
O        O      0.946450000000     0.570295000000     0.483600000000     0          
O        O      0.894105000000     0.536285000000     0.460635000000     0          
O        O      0.841365000000     0.547200000000     0.499685000000     0          
O        O      0.841540000000     0.995655000000     0.458650000000     0          
O        O      0.882000000000     0.996110000000     0.011600000000     0          
O        O      0.787180000000     0.531900000000     0.466000000000     0          
O        O      0.806785000000     0.995140000000     0.240360000000     0          
O        O      0.796115000000     0.969045000000     0.180455000000     0          
O        O      0.803550000000     0.929705000000     0.233600000000     0          
O        O      0.855895000000     0.963715000000     0.210635000000     0          
O        O      0.908635000000     0.952800000000     0.249685000000     0          
O        O      0.908460000000     0.504345000000     0.208650000000     0          
O        O      0.868000000000     0.503890000000     0.261600000000     0          
O        O      0.962820000000     0.968100000000     0.216000000000     0          
O        O      0.556785000000     0.754860000000     0.259640000000     0          
O        O      0.546115000000     0.780955000000     0.319545000000     0          
O        O      0.553550000000     0.820295000000     0.266400000000     0          
O        O      0.605895000000     0.786285000000     0.289365000000     0          
O        O      0.658635000000     0.797200000000     0.250315000000     0          
O        O      0.658460000000     0.745655000000     0.291350000000     0          
O        O      0.618000000000     0.746110000000     0.238400000000     0          
O        O      0.712820000000     0.781900000000     0.284000000000     0          
O        O      0.990360000000     0.806785000000     0.254860000000     0          
O        O      0.930455000000     0.796115000000     0.280955000000     0          
O        O      0.983600000000     0.803550000000     0.320295000000     0          
O        O      0.960635000000     0.855895000000     0.286285000000     0          
O        O      0.999685000000     0.908635000000     0.297200000000     0          
O        O      0.958650000000     0.908460000000     0.245655000000     0          
O        O      0.511600000000     0.868000000000     0.246110000000     0          
O        O      0.966000000000     0.962820000000     0.281900000000     0          
O        O      0.759640000000     0.693215000000     0.004860000000     0          
O        O      0.819545000000     0.703885000000     0.030955000000     0          
O        O      0.766400000000     0.696450000000     0.070295000000     0          
O        O      0.789365000000     0.644105000000     0.036285000000     0          
O        O      0.750315000000     0.591365000000     0.047200000000     0          
O        O      0.791350000000     0.591540000000     0.495655000000     0          
O        O      0.738400000000     0.632000000000     0.496110000000     0          
O        O      0.784000000000     0.537180000000     0.031900000000     0          
O        O      0.740360000000     0.943215000000     0.245140000000     0          
O        O      0.680455000000     0.953885000000     0.219045000000     0          
O        O      0.733600000000     0.946450000000     0.179705000000     0          
O        O      0.710635000000     0.894105000000     0.213715000000     0          
O        O      0.749685000000     0.841365000000     0.202800000000     0          
O        O      0.708650000000     0.841540000000     0.254345000000     0          
O        O      0.761600000000     0.882000000000     0.253890000000     0          
O        O      0.716000000000     0.787180000000     0.218100000000     0          
O        O      0.509640000000     0.556785000000     0.495140000000     0          
O        O      0.569545000000     0.546115000000     0.469045000000     0          
O        O      0.516400000000     0.553550000000     0.429705000000     0          
O        O      0.539365000000     0.605895000000     0.463715000000     0          
O        O      0.500315000000     0.658635000000     0.452800000000     0          
O        O      0.541350000000     0.658460000000     0.004345000000     0          
O        O      0.988400000000     0.618000000000     0.003890000000     0          
O        O      0.534000000000     0.712820000000     0.468100000000     0          
O        O      0.754860000000     0.990360000000     0.306785000000     0          
O        O      0.780955000000     0.930455000000     0.296115000000     0          
O        O      0.820295000000     0.983600000000     0.303550000000     0          
O        O      0.786285000000     0.960635000000     0.355895000000     0          
O        O      0.797200000000     0.999685000000     0.408635000000     0          
O        O      0.745655000000     0.958650000000     0.408460000000     0          
O        O      0.746110000000     0.511600000000     0.368000000000     0          
O        O      0.781900000000     0.966000000000     0.462820000000     0          
O        O      0.995140000000     0.509640000000     0.056785000000     0          
O        O      0.969045000000     0.569545000000     0.046115000000     0          
O        O      0.929705000000     0.516400000000     0.053550000000     0          
O        O      0.963715000000     0.539365000000     0.105895000000     0          
O        O      0.952800000000     0.500315000000     0.158635000000     0          
O        O      0.504345000000     0.541350000000     0.158460000000     0          
O        O      0.503890000000     0.988400000000     0.118000000000     0          
O        O      0.968100000000     0.534000000000     0.212820000000     0          
O        O      0.504860000000     0.759640000000     0.193215000000     0          
O        O      0.530955000000     0.819545000000     0.203885000000     0          
O        O      0.570295000000     0.766400000000     0.196450000000     0          
O        O      0.536285000000     0.789365000000     0.144105000000     0          
O        O      0.547200000000     0.750315000000     0.091365000000     0          
O        O      0.995655000000     0.791350000000     0.091540000000     0          
O        O      0.996110000000     0.738400000000     0.132000000000     0          
O        O      0.531900000000     0.784000000000     0.037180000000     0          
O        O      0.745140000000     0.740360000000     0.443215000000     0          
O        O      0.719045000000     0.680455000000     0.453885000000     0          
O        O      0.679705000000     0.733600000000     0.446450000000     0          
O        O      0.713715000000     0.710635000000     0.394105000000     0          
O        O      0.702800000000     0.749685000000     0.341365000000     0          
O        O      0.754345000000     0.708650000000     0.341540000000     0          
O        O      0.753890000000     0.761600000000     0.382000000000     0          
O        O      0.718100000000     0.716000000000     0.287180000000     0          
O        O      0.806785000000     0.754860000000     0.490360000000     0          
O        O      0.796115000000     0.780955000000     0.430455000000     0          
O        O      0.803550000000     0.820295000000     0.483600000000     0          
O        O      0.855895000000     0.786285000000     0.460635000000     0          
O        O      0.908635000000     0.797200000000     0.499685000000     0          
O        O      0.908460000000     0.745655000000     0.458650000000     0          
O        O      0.868000000000     0.746110000000     0.011600000000     0          
O        O      0.962820000000     0.781900000000     0.466000000000     0          
O        O      0.556785000000     0.995140000000     0.009640000000     0          
O        O      0.546115000000     0.969045000000     0.069545000000     0          
O        O      0.553550000000     0.929705000000     0.016400000000     0          
O        O      0.605895000000     0.963715000000     0.039365000000     0          
O        O      0.658635000000     0.952800000000     0.000315000000     0          
O        O      0.658460000000     0.504345000000     0.041350000000     0          
O        O      0.618000000000     0.503890000000     0.488400000000     0          
O        O      0.712820000000     0.968100000000     0.034000000000     0          
O        O      0.693215000000     0.504860000000     0.259640000000     0          
O        O      0.703885000000     0.530955000000     0.319545000000     0          
O        O      0.696450000000     0.570295000000     0.266400000000     0          
O        O      0.644105000000     0.536285000000     0.289365000000     0          
O        O      0.591365000000     0.547200000000     0.250315000000     0          
O        O      0.591540000000     0.995655000000     0.291350000000     0          
O        O      0.632000000000     0.996110000000     0.238400000000     0          
O        O      0.537180000000     0.531900000000     0.284000000000     0          
O        O      0.943215000000     0.745140000000     0.240360000000     0          
O        O      0.953885000000     0.719045000000     0.180455000000     0          
O        O      0.946450000000     0.679705000000     0.233600000000     0          
O        O      0.894105000000     0.713715000000     0.210635000000     0          
O        O      0.841365000000     0.702800000000     0.249685000000     0          
O        O      0.841540000000     0.754345000000     0.208650000000     0          
O        O      0.882000000000     0.753890000000     0.261600000000     0          
O        O      0.787180000000     0.718100000000     0.216000000000     0          
O        O      0.509640000000     0.693215000000     0.745140000000     0          
O        O      0.569545000000     0.703885000000     0.719045000000     0          
O        O      0.516400000000     0.696450000000     0.679705000000     0          
O        O      0.539365000000     0.644105000000     0.713715000000     0          
O        O      0.500315000000     0.591365000000     0.702800000000     0          
O        O      0.541350000000     0.591540000000     0.754345000000     0          
O        O      0.988400000000     0.632000000000     0.753890000000     0          
O        O      0.534000000000     0.537180000000     0.718100000000     0          
O        O      0.740360000000     0.806785000000     0.995140000000     0          
O        O      0.680455000000     0.796115000000     0.969045000000     0          
O        O      0.733600000000     0.803550000000     0.929705000000     0          
O        O      0.710635000000     0.855895000000     0.963715000000     0          
O        O      0.749685000000     0.908635000000     0.952800000000     0          
O        O      0.708650000000     0.908460000000     0.504345000000     0          
O        O      0.761600000000     0.868000000000     0.503890000000     0          
O        O      0.716000000000     0.962820000000     0.968100000000     0          
O        O      0.759640000000     0.556785000000     0.754860000000     0          
O        O      0.819545000000     0.546115000000     0.780955000000     0          
O        O      0.766400000000     0.553550000000     0.820295000000     0          
O        O      0.789365000000     0.605895000000     0.786285000000     0          
O        O      0.750315000000     0.658635000000     0.797200000000     0          
O        O      0.791350000000     0.658460000000     0.745655000000     0          
O        O      0.738400000000     0.618000000000     0.746110000000     0          
O        O      0.784000000000     0.712820000000     0.781900000000     0          
O        O      0.990360000000     0.943215000000     0.504860000000     0          
O        O      0.930455000000     0.953885000000     0.530955000000     0          
O        O      0.983600000000     0.946450000000     0.570295000000     0          
O        O      0.960635000000     0.894105000000     0.536285000000     0          
O        O      0.999685000000     0.841365000000     0.547200000000     0          
O        O      0.958650000000     0.841540000000     0.995655000000     0          
O        O      0.511600000000     0.882000000000     0.996110000000     0          
O        O      0.966000000000     0.787180000000     0.531900000000     0          
O        O      0.745140000000     0.509640000000     0.693215000000     0          
O        O      0.719045000000     0.569545000000     0.703885000000     0          
O        O      0.679705000000     0.516400000000     0.696450000000     0          
O        O      0.713715000000     0.539365000000     0.644105000000     0          
O        O      0.702800000000     0.500315000000     0.591365000000     0          
O        O      0.754345000000     0.541350000000     0.591540000000     0          
O        O      0.753890000000     0.988400000000     0.632000000000     0          
O        O      0.718100000000     0.534000000000     0.537180000000     0          
O        O      0.504860000000     0.990360000000     0.943215000000     0          
O        O      0.530955000000     0.930455000000     0.953885000000     0          
O        O      0.570295000000     0.983600000000     0.946450000000     0          
O        O      0.536285000000     0.960635000000     0.894105000000     0          
O        O      0.547200000000     0.999685000000     0.841365000000     0          
O        O      0.995655000000     0.958650000000     0.841540000000     0          
O        O      0.996110000000     0.511600000000     0.882000000000     0          
O        O      0.531900000000     0.966000000000     0.787180000000     0          
O        O      0.995140000000     0.740360000000     0.806785000000     0          
O        O      0.969045000000     0.680455000000     0.796115000000     0          
O        O      0.929705000000     0.733600000000     0.803550000000     0          
O        O      0.963715000000     0.710635000000     0.855895000000     0          
O        O      0.952800000000     0.749685000000     0.908635000000     0          
O        O      0.504345000000     0.708650000000     0.908460000000     0          
O        O      0.503890000000     0.761600000000     0.868000000000     0          
O        O      0.968100000000     0.716000000000     0.962820000000     0          
O        O      0.754860000000     0.759640000000     0.556785000000     0          
O        O      0.780955000000     0.819545000000     0.546115000000     0          
O        O      0.820295000000     0.766400000000     0.553550000000     0          
O        O      0.786285000000     0.789365000000     0.605895000000     0          
O        O      0.797200000000     0.750315000000     0.658635000000     0          
O        O      0.745655000000     0.791350000000     0.658460000000     0          
O        O      0.746110000000     0.738400000000     0.618000000000     0          
O        O      0.781900000000     0.784000000000     0.712820000000     0          
O        O      0.693215000000     0.745140000000     0.509640000000     0          
O        O      0.703885000000     0.719045000000     0.569545000000     0          
O        O      0.696450000000     0.679705000000     0.516400000000     0          
O        O      0.644105000000     0.713715000000     0.539365000000     0          
O        O      0.591365000000     0.702800000000     0.500315000000     0          
O        O      0.591540000000     0.754345000000     0.541350000000     0          
O        O      0.632000000000     0.753890000000     0.988400000000     0          
O        O      0.537180000000     0.718100000000     0.534000000000     0          
O        O      0.943215000000     0.504860000000     0.990360000000     0          
O        O      0.953885000000     0.530955000000     0.930455000000     0          
O        O      0.946450000000     0.570295000000     0.983600000000     0          
O        O      0.894105000000     0.536285000000     0.960635000000     0          
O        O      0.841365000000     0.547200000000     0.999685000000     0          
O        O      0.841540000000     0.995655000000     0.958650000000     0          
O        O      0.882000000000     0.996110000000     0.511600000000     0          
O        O      0.787180000000     0.531900000000     0.966000000000     0          
O        O      0.806785000000     0.995140000000     0.740360000000     0          
O        O      0.796115000000     0.969045000000     0.680455000000     0          
O        O      0.803550000000     0.929705000000     0.733600000000     0          
O        O      0.855895000000     0.963715000000     0.710635000000     0          
O        O      0.908635000000     0.952800000000     0.749685000000     0          
O        O      0.908460000000     0.504345000000     0.708650000000     0          
O        O      0.868000000000     0.503890000000     0.761600000000     0          
O        O      0.962820000000     0.968100000000     0.716000000000     0          
O        O      0.556785000000     0.754860000000     0.759640000000     0          
O        O      0.546115000000     0.780955000000     0.819545000000     0          
O        O      0.553550000000     0.820295000000     0.766400000000     0          
O        O      0.605895000000     0.786285000000     0.789365000000     0          
O        O      0.658635000000     0.797200000000     0.750315000000     0          
O        O      0.658460000000     0.745655000000     0.791350000000     0          
O        O      0.618000000000     0.746110000000     0.738400000000     0          
O        O      0.712820000000     0.781900000000     0.784000000000     0          
O        O      0.990360000000     0.806785000000     0.754860000000     0          
O        O      0.930455000000     0.796115000000     0.780955000000     0          
O        O      0.983600000000     0.803550000000     0.820295000000     0          
O        O      0.960635000000     0.855895000000     0.786285000000     0          
O        O      0.999685000000     0.908635000000     0.797200000000     0          
O        O      0.958650000000     0.908460000000     0.745655000000     0          
O        O      0.511600000000     0.868000000000     0.746110000000     0          
O        O      0.966000000000     0.962820000000     0.781900000000     0          
O        O      0.759640000000     0.693215000000     0.504860000000     0          
O        O      0.819545000000     0.703885000000     0.530955000000     0          
O        O      0.766400000000     0.696450000000     0.570295000000     0          
O        O      0.789365000000     0.644105000000     0.536285000000     0          
O        O      0.750315000000     0.591365000000     0.547200000000     0          
O        O      0.791350000000     0.591540000000     0.995655000000     0          
O        O      0.738400000000     0.632000000000     0.996110000000     0          
O        O      0.784000000000     0.537180000000     0.531900000000     0          
O        O      0.740360000000     0.943215000000     0.745140000000     0          
O        O      0.680455000000     0.953885000000     0.719045000000     0          
O        O      0.733600000000     0.946450000000     0.679705000000     0          
O        O      0.710635000000     0.894105000000     0.713715000000     0          
O        O      0.749685000000     0.841365000000     0.702800000000     0          
O        O      0.708650000000     0.841540000000     0.754345000000     0          
O        O      0.761600000000     0.882000000000     0.753890000000     0          
O        O      0.716000000000     0.787180000000     0.718100000000     0          
O        O      0.509640000000     0.556785000000     0.995140000000     0          
O        O      0.569545000000     0.546115000000     0.969045000000     0          
O        O      0.516400000000     0.553550000000     0.929705000000     0          
O        O      0.539365000000     0.605895000000     0.963715000000     0          
O        O      0.500315000000     0.658635000000     0.952800000000     0          
O        O      0.541350000000     0.658460000000     0.504345000000     0          
O        O      0.988400000000     0.618000000000     0.503890000000     0          
O        O      0.534000000000     0.712820000000     0.968100000000     0          
O        O      0.754860000000     0.990360000000     0.806785000000     0          
O        O      0.780955000000     0.930455000000     0.796115000000     0          
O        O      0.820295000000     0.983600000000     0.803550000000     0          
O        O      0.786285000000     0.960635000000     0.855895000000     0          
O        O      0.797200000000     0.999685000000     0.908635000000     0          
O        O      0.745655000000     0.958650000000     0.908460000000     0          
O        O      0.746110000000     0.511600000000     0.868000000000     0          
O        O      0.781900000000     0.966000000000     0.962820000000     0          
O        O      0.995140000000     0.509640000000     0.556785000000     0          
O        O      0.969045000000     0.569545000000     0.546115000000     0          
O        O      0.929705000000     0.516400000000     0.553550000000     0          
O        O      0.963715000000     0.539365000000     0.605895000000     0          
O        O      0.952800000000     0.500315000000     0.658635000000     0          
O        O      0.504345000000     0.541350000000     0.658460000000     0          
O        O      0.503890000000     0.988400000000     0.618000000000     0          
O        O      0.968100000000     0.534000000000     0.712820000000     0          
O        O      0.504860000000     0.759640000000     0.693215000000     0          
O        O      0.530955000000     0.819545000000     0.703885000000     0          
O        O      0.570295000000     0.766400000000     0.696450000000     0          
O        O      0.536285000000     0.789365000000     0.644105000000     0          
O        O      0.547200000000     0.750315000000     0.591365000000     0          
O        O      0.995655000000     0.791350000000     0.591540000000     0          
O        O      0.996110000000     0.738400000000     0.632000000000     0          
O        O      0.531900000000     0.784000000000     0.537180000000     0          
O        O      0.745140000000     0.740360000000     0.943215000000     0          
O        O      0.719045000000     0.680455000000     0.953885000000     0          
O        O      0.679705000000     0.733600000000     0.946450000000     0          
O        O      0.713715000000     0.710635000000     0.894105000000     0          
O        O      0.702800000000     0.749685000000     0.841365000000     0          
O        O      0.754345000000     0.708650000000     0.841540000000     0          
O        O      0.753890000000     0.761600000000     0.882000000000     0          
O        O      0.718100000000     0.716000000000     0.787180000000     0          
O        O      0.806785000000     0.754860000000     0.990360000000     0          
O        O      0.796115000000     0.780955000000     0.930455000000     0          
O        O      0.803550000000     0.820295000000     0.983600000000     0          
O        O      0.855895000000     0.786285000000     0.960635000000     0          
O        O      0.908635000000     0.797200000000     0.999685000000     0          
O        O      0.908460000000     0.745655000000     0.958650000000     0          
O        O      0.868000000000     0.746110000000     0.511600000000     0          
O        O      0.962820000000     0.781900000000     0.966000000000     0          
O        O      0.556785000000     0.995140000000     0.509640000000     0          
O        O      0.546115000000     0.969045000000     0.569545000000     0          
O        O      0.553550000000     0.929705000000     0.516400000000     0          
O        O      0.605895000000     0.963715000000     0.539365000000     0          
O        O      0.658635000000     0.952800000000     0.500315000000     0          
O        O      0.658460000000     0.504345000000     0.541350000000     0          
O        O      0.618000000000     0.503890000000     0.988400000000     0          
O        O      0.712820000000     0.968100000000     0.534000000000     0          
O        O      0.693215000000     0.504860000000     0.759640000000     0          
O        O      0.703885000000     0.530955000000     0.819545000000     0          
O        O      0.696450000000     0.570295000000     0.766400000000     0          
O        O      0.644105000000     0.536285000000     0.789365000000     0          
O        O      0.591365000000     0.547200000000     0.750315000000     0          
O        O      0.591540000000     0.995655000000     0.791350000000     0          
O        O      0.632000000000     0.996110000000     0.738400000000     0          
O        O      0.537180000000     0.531900000000     0.784000000000     0          
O        O      0.943215000000     0.745140000000     0.740360000000     0          
O        O      0.953885000000     0.719045000000     0.680455000000     0          
O        O      0.946450000000     0.679705000000     0.733600000000     0          
O        O      0.894105000000     0.713715000000     0.710635000000     0          
O        O      0.841365000000     0.702800000000     0.749685000000     0          
O        O      0.841540000000     0.754345000000     0.708650000000     0          
O        O      0.882000000000     0.753890000000     0.761600000000     0          
O        O      0.787180000000     0.718100000000     0.716000000000     0          


