data_zeolite

_audit_creation_method RASPA-1.0
_audit_creation_date 2021-6-7
_audit_author_name ''

_cell_length_a    31.202
_cell_length_b    31.202
_cell_length_c    30.204
_cell_angle_alpha 90
_cell_angle_beta  90
_cell_angle_gamma 120
_cell_volume      25466

_symmetry_cell_setting          hexagonal
_symmetry_space_group_name_Hall 'P 1'
_symmetry_space_group_name_H-M  'P 1'
_symmetry_Int_Tables_number     1

_symmetry_equiv_pos_as_xyz 'x,y,z'

loop_
_atom_site_label
_atom_site_type_symbol
_atom_site_fract_x
_atom_site_fract_y
_atom_site_fract_z
_atom_site_charge
O        O      0.163100000000     0.163100000000     0.125000000000     0          
O        O      0.189600000000     0.094800000000     0.125000000000     0          
O        O      0.242100000000     0.178300000000     0.081475000000     0          
O        O      0.307500000000     0.153800000000     0.056025000000     0          
O        O      0.276100000000     0.196500000000     0.000000000000     0          
O        O      0.334100000000     0.247600000000     0.065975000000     0          
O        O      0.385400000000     0.305500000000     0.000000000000     0          
O        O      0.403700000000     0.339500000000     0.081475000000     0          
O        O      0.427800000000     0.273700000000     0.056100000000     0          
O        O      0.418300000000     0.418300000000     0.125000000000     0          
O        O      0.487100000000     0.392600000000     0.125000000000     0          
O        O      0.581600000000     0.418400000000     0.125000000000     0          
O        O      0.517600000000     0.339600000000     0.081500000000     0          
O        O      0.495400000000     0.247700000000     0.065675000000     0          
O        O      0.501900000000     0.305900000000     0.000000000000     0          
T        Si     0.290000000000     0.194000000000     0.050925000000     0          
T        Si     0.387700000000     0.291600000000     0.050950000000     0          
T        Si     0.485700000000     0.291700000000     0.050925000000     0          
T        Si     0.209200000000     0.153300000000     0.125000000000     0          
T        Si     0.428500000000     0.372500000000     0.125000000000     0          
T        Si     0.525800000000     0.372700000000     0.125000000000     0          
O        O      0.000000000000     0.163100000000     0.125000000000     0          
O        O      0.094800000000     0.189600000000     0.125000000000     0          
O        O      0.063800000000     0.242100000000     0.081475000000     0          
O        O      0.153700000000     0.307500000000     0.056025000000     0          
O        O      0.079600000000     0.276100000000     0.000000000000     0          
O        O      0.086500000000     0.334100000000     0.065975000000     0          
O        O      0.079900000000     0.385400000000     0.000000000000     0          
O        O      0.064200000000     0.403700000000     0.081475000000     0          
O        O      0.154100000000     0.427800000000     0.056100000000     0          
O        O      0.000000000000     0.418300000000     0.125000000000     0          
O        O      0.094500000000     0.487100000000     0.125000000000     0          
O        O      0.163200000000     0.581600000000     0.125000000000     0          
O        O      0.178000000000     0.517600000000     0.081500000000     0          
O        O      0.247700000000     0.495400000000     0.065675000000     0          
O        O      0.196000000000     0.501900000000     0.000000000000     0          
T        Si     0.096000000000     0.290000000000     0.050925000000     0          
T        Si     0.096100000000     0.387700000000     0.050950000000     0          
T        Si     0.194000000000     0.485700000000     0.050925000000     0          
T        Si     0.055900000000     0.209200000000     0.125000000000     0          
T        Si     0.056000000000     0.428500000000     0.125000000000     0          
T        Si     0.153100000000     0.525800000000     0.125000000000     0          
O        O      0.836900000000     0.000000000000     0.125000000000     0          
O        O      0.905200000000     0.094800000000     0.125000000000     0          
O        O      0.821700000000     0.063800000000     0.081475000000     0          
O        O      0.846200000000     0.153700000000     0.056025000000     0          
O        O      0.803500000000     0.079600000000     0.000000000000     0          
O        O      0.752400000000     0.086500000000     0.065975000000     0          
O        O      0.694500000000     0.079900000000     0.000000000000     0          
O        O      0.660500000000     0.064200000000     0.081475000000     0          
O        O      0.726300000000     0.154100000000     0.056100000000     0          
O        O      0.581700000000     0.000000000000     0.125000000000     0          
O        O      0.607400000000     0.094500000000     0.125000000000     0          
O        O      0.581600000000     0.163200000000     0.125000000000     0          
O        O      0.660400000000     0.178000000000     0.081500000000     0          
O        O      0.752300000000     0.247700000000     0.065675000000     0          
O        O      0.694100000000     0.196000000000     0.000000000000     0          
T        Si     0.806000000000     0.096000000000     0.050925000000     0          
T        Si     0.708400000000     0.096100000000     0.050950000000     0          
T        Si     0.708300000000     0.194000000000     0.050925000000     0          
T        Si     0.846700000000     0.055900000000     0.125000000000     0          
T        Si     0.627500000000     0.056000000000     0.125000000000     0          
T        Si     0.627300000000     0.153100000000     0.125000000000     0          
O        O      0.836900000000     0.836900000000     0.125000000000     0          
O        O      0.810400000000     0.905200000000     0.125000000000     0          
O        O      0.757900000000     0.821700000000     0.081475000000     0          
O        O      0.692500000000     0.846200000000     0.056025000000     0          
O        O      0.723900000000     0.803500000000     0.000000000000     0          
O        O      0.665900000000     0.752400000000     0.065975000000     0          
O        O      0.614600000000     0.694500000000     0.000000000000     0          
O        O      0.596300000000     0.660500000000     0.081475000000     0          
O        O      0.572200000000     0.726300000000     0.056100000000     0          
O        O      0.581700000000     0.581700000000     0.125000000000     0          
O        O      0.512900000000     0.607400000000     0.125000000000     0          
O        O      0.418400000000     0.581600000000     0.125000000000     0          
O        O      0.482400000000     0.660400000000     0.081500000000     0          
O        O      0.504600000000     0.752300000000     0.065675000000     0          
O        O      0.498100000000     0.694100000000     0.000000000000     0          
T        Si     0.710000000000     0.806000000000     0.050925000000     0          
T        Si     0.612300000000     0.708400000000     0.050950000000     0          
T        Si     0.514300000000     0.708300000000     0.050925000000     0          
T        Si     0.790800000000     0.846700000000     0.125000000000     0          
T        Si     0.571500000000     0.627500000000     0.125000000000     0          
T        Si     0.474200000000     0.627300000000     0.125000000000     0          
O        O      0.000000000000     0.836900000000     0.125000000000     0          
O        O      0.905200000000     0.810400000000     0.125000000000     0          
O        O      0.936200000000     0.757900000000     0.081475000000     0          
O        O      0.846300000000     0.692500000000     0.056025000000     0          
O        O      0.920400000000     0.723900000000     0.000000000000     0          
O        O      0.913500000000     0.665900000000     0.065975000000     0          
O        O      0.920100000000     0.614600000000     0.000000000000     0          
O        O      0.935800000000     0.596300000000     0.081475000000     0          
O        O      0.845900000000     0.572200000000     0.056100000000     0          
O        O      0.000000000000     0.581700000000     0.125000000000     0          
O        O      0.905500000000     0.512900000000     0.125000000000     0          
O        O      0.836800000000     0.418400000000     0.125000000000     0          
O        O      0.822000000000     0.482400000000     0.081500000000     0          
O        O      0.752300000000     0.504600000000     0.065675000000     0          
O        O      0.804000000000     0.498100000000     0.000000000000     0          
T        Si     0.904000000000     0.710000000000     0.050925000000     0          
T        Si     0.903900000000     0.612300000000     0.050950000000     0          
T        Si     0.806000000000     0.514300000000     0.050925000000     0          
T        Si     0.944100000000     0.790800000000     0.125000000000     0          
T        Si     0.944000000000     0.571500000000     0.125000000000     0          
T        Si     0.846900000000     0.474200000000     0.125000000000     0          
O        O      0.163100000000     0.000000000000     0.125000000000     0          
O        O      0.094800000000     0.905200000000     0.125000000000     0          
O        O      0.178300000000     0.936200000000     0.081475000000     0          
O        O      0.153800000000     0.846300000000     0.056025000000     0          
O        O      0.196500000000     0.920400000000     0.000000000000     0          
O        O      0.247600000000     0.913500000000     0.065975000000     0          
O        O      0.305500000000     0.920100000000     0.000000000000     0          
O        O      0.339500000000     0.935800000000     0.081475000000     0          
O        O      0.273700000000     0.845900000000     0.056100000000     0          
O        O      0.418300000000     0.000000000000     0.125000000000     0          
O        O      0.392600000000     0.905500000000     0.125000000000     0          
O        O      0.418400000000     0.836800000000     0.125000000000     0          
O        O      0.339600000000     0.822000000000     0.081500000000     0          
O        O      0.247700000000     0.752300000000     0.065675000000     0          
O        O      0.305900000000     0.804000000000     0.000000000000     0          
T        Si     0.194000000000     0.904000000000     0.050925000000     0          
T        Si     0.291600000000     0.903900000000     0.050950000000     0          
T        Si     0.291700000000     0.806000000000     0.050925000000     0          
T        Si     0.153300000000     0.944100000000     0.125000000000     0          
T        Si     0.372500000000     0.944000000000     0.125000000000     0          
T        Si     0.372700000000     0.846900000000     0.125000000000     0          
O        O      0.821700000000     0.757900000000     0.168525000000     0          
O        O      0.846200000000     0.692500000000     0.193975000000     0          
O        O      0.803500000000     0.723900000000     0.000000000000     0          
O        O      0.752400000000     0.665900000000     0.184025000000     0          
O        O      0.694500000000     0.614600000000     0.000000000000     0          
O        O      0.660500000000     0.596300000000     0.168525000000     0          
O        O      0.726300000000     0.572200000000     0.193900000000     0          
O        O      0.607400000000     0.512900000000     0.125000000000     0          
O        O      0.660400000000     0.482400000000     0.168500000000     0          
O        O      0.752300000000     0.504600000000     0.184325000000     0          
O        O      0.694100000000     0.498100000000     0.000000000000     0          
T        Si     0.806000000000     0.710000000000     0.199075000000     0          
T        Si     0.708400000000     0.612300000000     0.199050000000     0          
T        Si     0.708300000000     0.514300000000     0.199075000000     0          
T        Si     0.846700000000     0.790800000000     0.125000000000     0          
T        Si     0.627500000000     0.571500000000     0.125000000000     0          
T        Si     0.627300000000     0.474200000000     0.125000000000     0          
O        O      0.063800000000     0.821700000000     0.168525000000     0          
O        O      0.153700000000     0.846200000000     0.193975000000     0          
O        O      0.079600000000     0.803500000000     0.000000000000     0          
O        O      0.086500000000     0.752400000000     0.184025000000     0          
O        O      0.079900000000     0.694500000000     0.000000000000     0          
O        O      0.064200000000     0.660500000000     0.168525000000     0          
O        O      0.154100000000     0.726300000000     0.193900000000     0          
O        O      0.094500000000     0.607400000000     0.125000000000     0          
O        O      0.178000000000     0.660400000000     0.168500000000     0          
O        O      0.247700000000     0.752300000000     0.184325000000     0          
O        O      0.196000000000     0.694100000000     0.000000000000     0          
T        Si     0.096000000000     0.806000000000     0.199075000000     0          
T        Si     0.096100000000     0.708400000000     0.199050000000     0          
T        Si     0.194000000000     0.708300000000     0.199075000000     0          
T        Si     0.055900000000     0.846700000000     0.125000000000     0          
T        Si     0.056000000000     0.627500000000     0.125000000000     0          
T        Si     0.153100000000     0.627300000000     0.125000000000     0          
O        O      0.242100000000     0.063800000000     0.168525000000     0          
O        O      0.307500000000     0.153700000000     0.193975000000     0          
O        O      0.276100000000     0.079600000000     0.000000000000     0          
O        O      0.334100000000     0.086500000000     0.184025000000     0          
O        O      0.385400000000     0.079900000000     0.000000000000     0          
O        O      0.403700000000     0.064200000000     0.168525000000     0          
O        O      0.427800000000     0.154100000000     0.193900000000     0          
O        O      0.487100000000     0.094500000000     0.125000000000     0          
O        O      0.517600000000     0.178000000000     0.168500000000     0          
O        O      0.495400000000     0.247700000000     0.184325000000     0          
O        O      0.501900000000     0.196000000000     0.000000000000     0          
T        Si     0.290000000000     0.096000000000     0.199075000000     0          
T        Si     0.387700000000     0.096100000000     0.199050000000     0          
T        Si     0.485700000000     0.194000000000     0.199075000000     0          
T        Si     0.209200000000     0.055900000000     0.125000000000     0          
T        Si     0.428500000000     0.056000000000     0.125000000000     0          
T        Si     0.525800000000     0.153100000000     0.125000000000     0          
O        O      0.178300000000     0.242100000000     0.168525000000     0          
O        O      0.153800000000     0.307500000000     0.193975000000     0          
O        O      0.196500000000     0.276100000000     0.000000000000     0          
O        O      0.247600000000     0.334100000000     0.184025000000     0          
O        O      0.305500000000     0.385400000000     0.000000000000     0          
O        O      0.339500000000     0.403700000000     0.168525000000     0          
O        O      0.273700000000     0.427800000000     0.193900000000     0          
O        O      0.392600000000     0.487100000000     0.125000000000     0          
O        O      0.339600000000     0.517600000000     0.168500000000     0          
O        O      0.247700000000     0.495400000000     0.184325000000     0          
O        O      0.305900000000     0.501900000000     0.000000000000     0          
T        Si     0.194000000000     0.290000000000     0.199075000000     0          
T        Si     0.291600000000     0.387700000000     0.199050000000     0          
T        Si     0.291700000000     0.485700000000     0.199075000000     0          
T        Si     0.153300000000     0.209200000000     0.125000000000     0          
T        Si     0.372500000000     0.428500000000     0.125000000000     0          
T        Si     0.372700000000     0.525800000000     0.125000000000     0          
O        O      0.936200000000     0.178300000000     0.168525000000     0          
O        O      0.846300000000     0.153800000000     0.193975000000     0          
O        O      0.920400000000     0.196500000000     0.000000000000     0          
O        O      0.913500000000     0.247600000000     0.184025000000     0          
O        O      0.920100000000     0.305500000000     0.000000000000     0          
O        O      0.935800000000     0.339500000000     0.168525000000     0          
O        O      0.845900000000     0.273700000000     0.193900000000     0          
O        O      0.905500000000     0.392600000000     0.125000000000     0          
O        O      0.822000000000     0.339600000000     0.168500000000     0          
O        O      0.752300000000     0.247700000000     0.184325000000     0          
O        O      0.804000000000     0.305900000000     0.000000000000     0          
T        Si     0.904000000000     0.194000000000     0.199075000000     0          
T        Si     0.903900000000     0.291600000000     0.199050000000     0          
T        Si     0.806000000000     0.291700000000     0.199075000000     0          
T        Si     0.944100000000     0.153300000000     0.125000000000     0          
T        Si     0.944000000000     0.372500000000     0.125000000000     0          
T        Si     0.846900000000     0.372700000000     0.125000000000     0          
O        O      0.757900000000     0.936200000000     0.168525000000     0          
O        O      0.692500000000     0.846300000000     0.193975000000     0          
O        O      0.723900000000     0.920400000000     0.000000000000     0          
O        O      0.665900000000     0.913500000000     0.184025000000     0          
O        O      0.614600000000     0.920100000000     0.000000000000     0          
O        O      0.596300000000     0.935800000000     0.168525000000     0          
O        O      0.572200000000     0.845900000000     0.193900000000     0          
O        O      0.512900000000     0.905500000000     0.125000000000     0          
O        O      0.482400000000     0.822000000000     0.168500000000     0          
O        O      0.504600000000     0.752300000000     0.184325000000     0          
O        O      0.498100000000     0.804000000000     0.000000000000     0          
T        Si     0.710000000000     0.904000000000     0.199075000000     0          
T        Si     0.612300000000     0.903900000000     0.199050000000     0          
T        Si     0.514300000000     0.806000000000     0.199075000000     0          
T        Si     0.790800000000     0.944100000000     0.125000000000     0          
T        Si     0.571500000000     0.944000000000     0.125000000000     0          
T        Si     0.474200000000     0.846900000000     0.125000000000     0          
O        O      0.757900000000     0.821700000000     0.168525000000     0          
O        O      0.665900000000     0.752400000000     0.184025000000     0          
O        O      0.596300000000     0.660500000000     0.168525000000     0          
O        O      0.572200000000     0.726300000000     0.193900000000     0          
O        O      0.482400000000     0.660400000000     0.168500000000     0          
T        Si     0.710000000000     0.806000000000     0.199075000000     0          
T        Si     0.612300000000     0.708400000000     0.199050000000     0          
T        Si     0.514300000000     0.708300000000     0.199075000000     0          
O        O      0.936200000000     0.757900000000     0.168525000000     0          
O        O      0.913500000000     0.665900000000     0.184025000000     0          
O        O      0.935800000000     0.596300000000     0.168525000000     0          
O        O      0.845900000000     0.572200000000     0.193900000000     0          
O        O      0.822000000000     0.482400000000     0.168500000000     0          
T        Si     0.904000000000     0.710000000000     0.199075000000     0          
T        Si     0.903900000000     0.612300000000     0.199050000000     0          
T        Si     0.806000000000     0.514300000000     0.199075000000     0          
O        O      0.178300000000     0.936200000000     0.168525000000     0          
O        O      0.247600000000     0.913500000000     0.184025000000     0          
O        O      0.339500000000     0.935800000000     0.168525000000     0          
O        O      0.273700000000     0.845900000000     0.193900000000     0          
O        O      0.339600000000     0.822000000000     0.168500000000     0          
T        Si     0.194000000000     0.904000000000     0.199075000000     0          
T        Si     0.291600000000     0.903900000000     0.199050000000     0          
T        Si     0.291700000000     0.806000000000     0.199075000000     0          
O        O      0.242100000000     0.178300000000     0.168525000000     0          
O        O      0.334100000000     0.247600000000     0.184025000000     0          
O        O      0.403700000000     0.339500000000     0.168525000000     0          
O        O      0.427800000000     0.273700000000     0.193900000000     0          
O        O      0.517600000000     0.339600000000     0.168500000000     0          
T        Si     0.290000000000     0.194000000000     0.199075000000     0          
T        Si     0.387700000000     0.291600000000     0.199050000000     0          
T        Si     0.485700000000     0.291700000000     0.199075000000     0          
O        O      0.063800000000     0.242100000000     0.168525000000     0          
O        O      0.086500000000     0.334100000000     0.184025000000     0          
O        O      0.064200000000     0.403700000000     0.168525000000     0          
O        O      0.154100000000     0.427800000000     0.193900000000     0          
O        O      0.178000000000     0.517600000000     0.168500000000     0          
T        Si     0.096000000000     0.290000000000     0.199075000000     0          
T        Si     0.096100000000     0.387700000000     0.199050000000     0          
T        Si     0.194000000000     0.485700000000     0.199075000000     0          
O        O      0.821700000000     0.063800000000     0.168525000000     0          
O        O      0.752400000000     0.086500000000     0.184025000000     0          
O        O      0.660500000000     0.064200000000     0.168525000000     0          
O        O      0.726300000000     0.154100000000     0.193900000000     0          
O        O      0.660400000000     0.178000000000     0.168500000000     0          
T        Si     0.806000000000     0.096000000000     0.199075000000     0          
T        Si     0.708400000000     0.096100000000     0.199050000000     0          
T        Si     0.708300000000     0.194000000000     0.199075000000     0          
O        O      0.178300000000     0.242100000000     0.081475000000     0          
O        O      0.247600000000     0.334100000000     0.065975000000     0          
O        O      0.339500000000     0.403700000000     0.081475000000     0          
O        O      0.273700000000     0.427800000000     0.056100000000     0          
O        O      0.339600000000     0.517600000000     0.081500000000     0          
T        Si     0.194000000000     0.290000000000     0.050925000000     0          
T        Si     0.291600000000     0.387700000000     0.050950000000     0          
T        Si     0.291700000000     0.485700000000     0.050925000000     0          
O        O      0.936200000000     0.178300000000     0.081475000000     0          
O        O      0.913500000000     0.247600000000     0.065975000000     0          
O        O      0.935800000000     0.339500000000     0.081475000000     0          
O        O      0.845900000000     0.273700000000     0.056100000000     0          
O        O      0.822000000000     0.339600000000     0.081500000000     0          
T        Si     0.904000000000     0.194000000000     0.050925000000     0          
T        Si     0.903900000000     0.291600000000     0.050950000000     0          
T        Si     0.806000000000     0.291700000000     0.050925000000     0          
O        O      0.757900000000     0.936200000000     0.081475000000     0          
O        O      0.665900000000     0.913500000000     0.065975000000     0          
O        O      0.596300000000     0.935800000000     0.081475000000     0          
O        O      0.572200000000     0.845900000000     0.056100000000     0          
O        O      0.482400000000     0.822000000000     0.081500000000     0          
T        Si     0.710000000000     0.904000000000     0.050925000000     0          
T        Si     0.612300000000     0.903900000000     0.050950000000     0          
T        Si     0.514300000000     0.806000000000     0.050925000000     0          
O        O      0.821700000000     0.757900000000     0.081475000000     0          
O        O      0.752400000000     0.665900000000     0.065975000000     0          
O        O      0.660500000000     0.596300000000     0.081475000000     0          
O        O      0.726300000000     0.572200000000     0.056100000000     0          
O        O      0.660400000000     0.482400000000     0.081500000000     0          
T        Si     0.806000000000     0.710000000000     0.050925000000     0          
T        Si     0.708400000000     0.612300000000     0.050950000000     0          
T        Si     0.708300000000     0.514300000000     0.050925000000     0          
O        O      0.063800000000     0.821700000000     0.081475000000     0          
O        O      0.086500000000     0.752400000000     0.065975000000     0          
O        O      0.064200000000     0.660500000000     0.081475000000     0          
O        O      0.154100000000     0.726300000000     0.056100000000     0          
O        O      0.178000000000     0.660400000000     0.081500000000     0          
T        Si     0.096000000000     0.806000000000     0.050925000000     0          
T        Si     0.096100000000     0.708400000000     0.050950000000     0          
T        Si     0.194000000000     0.708300000000     0.050925000000     0          
O        O      0.242100000000     0.063800000000     0.081475000000     0          
O        O      0.334100000000     0.086500000000     0.065975000000     0          
O        O      0.403700000000     0.064200000000     0.081475000000     0          
O        O      0.427800000000     0.154100000000     0.056100000000     0          
O        O      0.517600000000     0.178000000000     0.081500000000     0          
T        Si     0.290000000000     0.096000000000     0.050925000000     0          
T        Si     0.387700000000     0.096100000000     0.050950000000     0          
T        Si     0.485700000000     0.194000000000     0.050925000000     0          
O        O      0.163100000000     0.163100000000     0.375000000000     0          
O        O      0.189600000000     0.094800000000     0.375000000000     0          
O        O      0.242100000000     0.178300000000     0.331475000000     0          
O        O      0.307500000000     0.153800000000     0.306025000000     0          
O        O      0.276100000000     0.196500000000     0.250000000000     0          
O        O      0.334100000000     0.247600000000     0.315975000000     0          
O        O      0.385400000000     0.305500000000     0.250000000000     0          
O        O      0.403700000000     0.339500000000     0.331475000000     0          
O        O      0.427800000000     0.273700000000     0.306100000000     0          
O        O      0.418300000000     0.418300000000     0.375000000000     0          
O        O      0.487100000000     0.392600000000     0.375000000000     0          
O        O      0.581600000000     0.418400000000     0.375000000000     0          
O        O      0.517600000000     0.339600000000     0.331500000000     0          
O        O      0.495400000000     0.247700000000     0.315675000000     0          
O        O      0.501900000000     0.305900000000     0.250000000000     0          
T        Si     0.290000000000     0.194000000000     0.300925000000     0          
T        Si     0.387700000000     0.291600000000     0.300950000000     0          
T        Si     0.485700000000     0.291700000000     0.300925000000     0          
T        Si     0.209200000000     0.153300000000     0.375000000000     0          
T        Si     0.428500000000     0.372500000000     0.375000000000     0          
T        Si     0.525800000000     0.372700000000     0.375000000000     0          
O        O      0.000000000000     0.163100000000     0.375000000000     0          
O        O      0.094800000000     0.189600000000     0.375000000000     0          
O        O      0.063800000000     0.242100000000     0.331475000000     0          
O        O      0.153700000000     0.307500000000     0.306025000000     0          
O        O      0.079600000000     0.276100000000     0.250000000000     0          
O        O      0.086500000000     0.334100000000     0.315975000000     0          
O        O      0.079900000000     0.385400000000     0.250000000000     0          
O        O      0.064200000000     0.403700000000     0.331475000000     0          
O        O      0.154100000000     0.427800000000     0.306100000000     0          
O        O      0.000000000000     0.418300000000     0.375000000000     0          
O        O      0.094500000000     0.487100000000     0.375000000000     0          
O        O      0.163200000000     0.581600000000     0.375000000000     0          
O        O      0.178000000000     0.517600000000     0.331500000000     0          
O        O      0.247700000000     0.495400000000     0.315675000000     0          
O        O      0.196000000000     0.501900000000     0.250000000000     0          
T        Si     0.096000000000     0.290000000000     0.300925000000     0          
T        Si     0.096100000000     0.387700000000     0.300950000000     0          
T        Si     0.194000000000     0.485700000000     0.300925000000     0          
T        Si     0.055900000000     0.209200000000     0.375000000000     0          
T        Si     0.056000000000     0.428500000000     0.375000000000     0          
T        Si     0.153100000000     0.525800000000     0.375000000000     0          
O        O      0.836900000000     0.000000000000     0.375000000000     0          
O        O      0.905200000000     0.094800000000     0.375000000000     0          
O        O      0.821700000000     0.063800000000     0.331475000000     0          
O        O      0.846200000000     0.153700000000     0.306025000000     0          
O        O      0.803500000000     0.079600000000     0.250000000000     0          
O        O      0.752400000000     0.086500000000     0.315975000000     0          
O        O      0.694500000000     0.079900000000     0.250000000000     0          
O        O      0.660500000000     0.064200000000     0.331475000000     0          
O        O      0.726300000000     0.154100000000     0.306100000000     0          
O        O      0.581700000000     0.000000000000     0.375000000000     0          
O        O      0.607400000000     0.094500000000     0.375000000000     0          
O        O      0.581600000000     0.163200000000     0.375000000000     0          
O        O      0.660400000000     0.178000000000     0.331500000000     0          
O        O      0.752300000000     0.247700000000     0.315675000000     0          
O        O      0.694100000000     0.196000000000     0.250000000000     0          
T        Si     0.806000000000     0.096000000000     0.300925000000     0          
T        Si     0.708400000000     0.096100000000     0.300950000000     0          
T        Si     0.708300000000     0.194000000000     0.300925000000     0          
T        Si     0.846700000000     0.055900000000     0.375000000000     0          
T        Si     0.627500000000     0.056000000000     0.375000000000     0          
T        Si     0.627300000000     0.153100000000     0.375000000000     0          
O        O      0.836900000000     0.836900000000     0.375000000000     0          
O        O      0.810400000000     0.905200000000     0.375000000000     0          
O        O      0.757900000000     0.821700000000     0.331475000000     0          
O        O      0.692500000000     0.846200000000     0.306025000000     0          
O        O      0.723900000000     0.803500000000     0.250000000000     0          
O        O      0.665900000000     0.752400000000     0.315975000000     0          
O        O      0.614600000000     0.694500000000     0.250000000000     0          
O        O      0.596300000000     0.660500000000     0.331475000000     0          
O        O      0.572200000000     0.726300000000     0.306100000000     0          
O        O      0.581700000000     0.581700000000     0.375000000000     0          
O        O      0.512900000000     0.607400000000     0.375000000000     0          
O        O      0.418400000000     0.581600000000     0.375000000000     0          
O        O      0.482400000000     0.660400000000     0.331500000000     0          
O        O      0.504600000000     0.752300000000     0.315675000000     0          
O        O      0.498100000000     0.694100000000     0.250000000000     0          
T        Si     0.710000000000     0.806000000000     0.300925000000     0          
T        Si     0.612300000000     0.708400000000     0.300950000000     0          
T        Si     0.514300000000     0.708300000000     0.300925000000     0          
T        Si     0.790800000000     0.846700000000     0.375000000000     0          
T        Si     0.571500000000     0.627500000000     0.375000000000     0          
T        Si     0.474200000000     0.627300000000     0.375000000000     0          
O        O      0.000000000000     0.836900000000     0.375000000000     0          
O        O      0.905200000000     0.810400000000     0.375000000000     0          
O        O      0.936200000000     0.757900000000     0.331475000000     0          
O        O      0.846300000000     0.692500000000     0.306025000000     0          
O        O      0.920400000000     0.723900000000     0.250000000000     0          
O        O      0.913500000000     0.665900000000     0.315975000000     0          
O        O      0.920100000000     0.614600000000     0.250000000000     0          
O        O      0.935800000000     0.596300000000     0.331475000000     0          
O        O      0.845900000000     0.572200000000     0.306100000000     0          
O        O      0.000000000000     0.581700000000     0.375000000000     0          
O        O      0.905500000000     0.512900000000     0.375000000000     0          
O        O      0.836800000000     0.418400000000     0.375000000000     0          
O        O      0.822000000000     0.482400000000     0.331500000000     0          
O        O      0.752300000000     0.504600000000     0.315675000000     0          
O        O      0.804000000000     0.498100000000     0.250000000000     0          
T        Si     0.904000000000     0.710000000000     0.300925000000     0          
T        Si     0.903900000000     0.612300000000     0.300950000000     0          
T        Si     0.806000000000     0.514300000000     0.300925000000     0          
T        Si     0.944100000000     0.790800000000     0.375000000000     0          
T        Si     0.944000000000     0.571500000000     0.375000000000     0          
T        Si     0.846900000000     0.474200000000     0.375000000000     0          
O        O      0.163100000000     0.000000000000     0.375000000000     0          
O        O      0.094800000000     0.905200000000     0.375000000000     0          
O        O      0.178300000000     0.936200000000     0.331475000000     0          
O        O      0.153800000000     0.846300000000     0.306025000000     0          
O        O      0.196500000000     0.920400000000     0.250000000000     0          
O        O      0.247600000000     0.913500000000     0.315975000000     0          
O        O      0.305500000000     0.920100000000     0.250000000000     0          
O        O      0.339500000000     0.935800000000     0.331475000000     0          
O        O      0.273700000000     0.845900000000     0.306100000000     0          
O        O      0.418300000000     0.000000000000     0.375000000000     0          
O        O      0.392600000000     0.905500000000     0.375000000000     0          
O        O      0.418400000000     0.836800000000     0.375000000000     0          
O        O      0.339600000000     0.822000000000     0.331500000000     0          
O        O      0.247700000000     0.752300000000     0.315675000000     0          
O        O      0.305900000000     0.804000000000     0.250000000000     0          
T        Si     0.194000000000     0.904000000000     0.300925000000     0          
T        Si     0.291600000000     0.903900000000     0.300950000000     0          
T        Si     0.291700000000     0.806000000000     0.300925000000     0          
T        Si     0.153300000000     0.944100000000     0.375000000000     0          
T        Si     0.372500000000     0.944000000000     0.375000000000     0          
T        Si     0.372700000000     0.846900000000     0.375000000000     0          
O        O      0.821700000000     0.757900000000     0.418525000000     0          
O        O      0.846200000000     0.692500000000     0.443975000000     0          
O        O      0.803500000000     0.723900000000     0.250000000000     0          
O        O      0.752400000000     0.665900000000     0.434025000000     0          
O        O      0.694500000000     0.614600000000     0.250000000000     0          
O        O      0.660500000000     0.596300000000     0.418525000000     0          
O        O      0.726300000000     0.572200000000     0.443900000000     0          
O        O      0.607400000000     0.512900000000     0.375000000000     0          
O        O      0.660400000000     0.482400000000     0.418500000000     0          
O        O      0.752300000000     0.504600000000     0.434325000000     0          
O        O      0.694100000000     0.498100000000     0.250000000000     0          
T        Si     0.806000000000     0.710000000000     0.449075000000     0          
T        Si     0.708400000000     0.612300000000     0.449050000000     0          
T        Si     0.708300000000     0.514300000000     0.449075000000     0          
T        Si     0.846700000000     0.790800000000     0.375000000000     0          
T        Si     0.627500000000     0.571500000000     0.375000000000     0          
T        Si     0.627300000000     0.474200000000     0.375000000000     0          
O        O      0.063800000000     0.821700000000     0.418525000000     0          
O        O      0.153700000000     0.846200000000     0.443975000000     0          
O        O      0.079600000000     0.803500000000     0.250000000000     0          
O        O      0.086500000000     0.752400000000     0.434025000000     0          
O        O      0.079900000000     0.694500000000     0.250000000000     0          
O        O      0.064200000000     0.660500000000     0.418525000000     0          
O        O      0.154100000000     0.726300000000     0.443900000000     0          
O        O      0.094500000000     0.607400000000     0.375000000000     0          
O        O      0.178000000000     0.660400000000     0.418500000000     0          
O        O      0.247700000000     0.752300000000     0.434325000000     0          
O        O      0.196000000000     0.694100000000     0.250000000000     0          
T        Si     0.096000000000     0.806000000000     0.449075000000     0          
T        Si     0.096100000000     0.708400000000     0.449050000000     0          
T        Si     0.194000000000     0.708300000000     0.449075000000     0          
T        Si     0.055900000000     0.846700000000     0.375000000000     0          
T        Si     0.056000000000     0.627500000000     0.375000000000     0          
T        Si     0.153100000000     0.627300000000     0.375000000000     0          
O        O      0.242100000000     0.063800000000     0.418525000000     0          
O        O      0.307500000000     0.153700000000     0.443975000000     0          
O        O      0.276100000000     0.079600000000     0.250000000000     0          
O        O      0.334100000000     0.086500000000     0.434025000000     0          
O        O      0.385400000000     0.079900000000     0.250000000000     0          
O        O      0.403700000000     0.064200000000     0.418525000000     0          
O        O      0.427800000000     0.154100000000     0.443900000000     0          
O        O      0.487100000000     0.094500000000     0.375000000000     0          
O        O      0.517600000000     0.178000000000     0.418500000000     0          
O        O      0.495400000000     0.247700000000     0.434325000000     0          
O        O      0.501900000000     0.196000000000     0.250000000000     0          
T        Si     0.290000000000     0.096000000000     0.449075000000     0          
T        Si     0.387700000000     0.096100000000     0.449050000000     0          
T        Si     0.485700000000     0.194000000000     0.449075000000     0          
T        Si     0.209200000000     0.055900000000     0.375000000000     0          
T        Si     0.428500000000     0.056000000000     0.375000000000     0          
T        Si     0.525800000000     0.153100000000     0.375000000000     0          
O        O      0.178300000000     0.242100000000     0.418525000000     0          
O        O      0.153800000000     0.307500000000     0.443975000000     0          
O        O      0.196500000000     0.276100000000     0.250000000000     0          
O        O      0.247600000000     0.334100000000     0.434025000000     0          
O        O      0.305500000000     0.385400000000     0.250000000000     0          
O        O      0.339500000000     0.403700000000     0.418525000000     0          
O        O      0.273700000000     0.427800000000     0.443900000000     0          
O        O      0.392600000000     0.487100000000     0.375000000000     0          
O        O      0.339600000000     0.517600000000     0.418500000000     0          
O        O      0.247700000000     0.495400000000     0.434325000000     0          
O        O      0.305900000000     0.501900000000     0.250000000000     0          
T        Si     0.194000000000     0.290000000000     0.449075000000     0          
T        Si     0.291600000000     0.387700000000     0.449050000000     0          
T        Si     0.291700000000     0.485700000000     0.449075000000     0          
T        Si     0.153300000000     0.209200000000     0.375000000000     0          
T        Si     0.372500000000     0.428500000000     0.375000000000     0          
T        Si     0.372700000000     0.525800000000     0.375000000000     0          
O        O      0.936200000000     0.178300000000     0.418525000000     0          
O        O      0.846300000000     0.153800000000     0.443975000000     0          
O        O      0.920400000000     0.196500000000     0.250000000000     0          
O        O      0.913500000000     0.247600000000     0.434025000000     0          
O        O      0.920100000000     0.305500000000     0.250000000000     0          
O        O      0.935800000000     0.339500000000     0.418525000000     0          
O        O      0.845900000000     0.273700000000     0.443900000000     0          
O        O      0.905500000000     0.392600000000     0.375000000000     0          
O        O      0.822000000000     0.339600000000     0.418500000000     0          
O        O      0.752300000000     0.247700000000     0.434325000000     0          
O        O      0.804000000000     0.305900000000     0.250000000000     0          
T        Si     0.904000000000     0.194000000000     0.449075000000     0          
T        Si     0.903900000000     0.291600000000     0.449050000000     0          
T        Si     0.806000000000     0.291700000000     0.449075000000     0          
T        Si     0.944100000000     0.153300000000     0.375000000000     0          
T        Si     0.944000000000     0.372500000000     0.375000000000     0          
T        Si     0.846900000000     0.372700000000     0.375000000000     0          
O        O      0.757900000000     0.936200000000     0.418525000000     0          
O        O      0.692500000000     0.846300000000     0.443975000000     0          
O        O      0.723900000000     0.920400000000     0.250000000000     0          
O        O      0.665900000000     0.913500000000     0.434025000000     0          
O        O      0.614600000000     0.920100000000     0.250000000000     0          
O        O      0.596300000000     0.935800000000     0.418525000000     0          
O        O      0.572200000000     0.845900000000     0.443900000000     0          
O        O      0.512900000000     0.905500000000     0.375000000000     0          
O        O      0.482400000000     0.822000000000     0.418500000000     0          
O        O      0.504600000000     0.752300000000     0.434325000000     0          
O        O      0.498100000000     0.804000000000     0.250000000000     0          
T        Si     0.710000000000     0.904000000000     0.449075000000     0          
T        Si     0.612300000000     0.903900000000     0.449050000000     0          
T        Si     0.514300000000     0.806000000000     0.449075000000     0          
T        Si     0.790800000000     0.944100000000     0.375000000000     0          
T        Si     0.571500000000     0.944000000000     0.375000000000     0          
T        Si     0.474200000000     0.846900000000     0.375000000000     0          
O        O      0.757900000000     0.821700000000     0.418525000000     0          
O        O      0.665900000000     0.752400000000     0.434025000000     0          
O        O      0.596300000000     0.660500000000     0.418525000000     0          
O        O      0.572200000000     0.726300000000     0.443900000000     0          
O        O      0.482400000000     0.660400000000     0.418500000000     0          
T        Si     0.710000000000     0.806000000000     0.449075000000     0          
T        Si     0.612300000000     0.708400000000     0.449050000000     0          
T        Si     0.514300000000     0.708300000000     0.449075000000     0          
O        O      0.936200000000     0.757900000000     0.418525000000     0          
O        O      0.913500000000     0.665900000000     0.434025000000     0          
O        O      0.935800000000     0.596300000000     0.418525000000     0          
O        O      0.845900000000     0.572200000000     0.443900000000     0          
O        O      0.822000000000     0.482400000000     0.418500000000     0          
T        Si     0.904000000000     0.710000000000     0.449075000000     0          
T        Si     0.903900000000     0.612300000000     0.449050000000     0          
T        Si     0.806000000000     0.514300000000     0.449075000000     0          
O        O      0.178300000000     0.936200000000     0.418525000000     0          
O        O      0.247600000000     0.913500000000     0.434025000000     0          
O        O      0.339500000000     0.935800000000     0.418525000000     0          
O        O      0.273700000000     0.845900000000     0.443900000000     0          
O        O      0.339600000000     0.822000000000     0.418500000000     0          
T        Si     0.194000000000     0.904000000000     0.449075000000     0          
T        Si     0.291600000000     0.903900000000     0.449050000000     0          
T        Si     0.291700000000     0.806000000000     0.449075000000     0          
O        O      0.242100000000     0.178300000000     0.418525000000     0          
O        O      0.334100000000     0.247600000000     0.434025000000     0          
O        O      0.403700000000     0.339500000000     0.418525000000     0          
O        O      0.427800000000     0.273700000000     0.443900000000     0          
O        O      0.517600000000     0.339600000000     0.418500000000     0          
T        Si     0.290000000000     0.194000000000     0.449075000000     0          
T        Si     0.387700000000     0.291600000000     0.449050000000     0          
T        Si     0.485700000000     0.291700000000     0.449075000000     0          
O        O      0.063800000000     0.242100000000     0.418525000000     0          
O        O      0.086500000000     0.334100000000     0.434025000000     0          
O        O      0.064200000000     0.403700000000     0.418525000000     0          
O        O      0.154100000000     0.427800000000     0.443900000000     0          
O        O      0.178000000000     0.517600000000     0.418500000000     0          
T        Si     0.096000000000     0.290000000000     0.449075000000     0          
T        Si     0.096100000000     0.387700000000     0.449050000000     0          
T        Si     0.194000000000     0.485700000000     0.449075000000     0          
O        O      0.821700000000     0.063800000000     0.418525000000     0          
O        O      0.752400000000     0.086500000000     0.434025000000     0          
O        O      0.660500000000     0.064200000000     0.418525000000     0          
O        O      0.726300000000     0.154100000000     0.443900000000     0          
O        O      0.660400000000     0.178000000000     0.418500000000     0          
T        Si     0.806000000000     0.096000000000     0.449075000000     0          
T        Si     0.708400000000     0.096100000000     0.449050000000     0          
T        Si     0.708300000000     0.194000000000     0.449075000000     0          
O        O      0.178300000000     0.242100000000     0.331475000000     0          
O        O      0.247600000000     0.334100000000     0.315975000000     0          
O        O      0.339500000000     0.403700000000     0.331475000000     0          
O        O      0.273700000000     0.427800000000     0.306100000000     0          
O        O      0.339600000000     0.517600000000     0.331500000000     0          
T        Si     0.194000000000     0.290000000000     0.300925000000     0          
T        Si     0.291600000000     0.387700000000     0.300950000000     0          
T        Si     0.291700000000     0.485700000000     0.300925000000     0          
O        O      0.936200000000     0.178300000000     0.331475000000     0          
O        O      0.913500000000     0.247600000000     0.315975000000     0          
O        O      0.935800000000     0.339500000000     0.331475000000     0          
O        O      0.845900000000     0.273700000000     0.306100000000     0          
O        O      0.822000000000     0.339600000000     0.331500000000     0          
T        Si     0.904000000000     0.194000000000     0.300925000000     0          
T        Si     0.903900000000     0.291600000000     0.300950000000     0          
T        Si     0.806000000000     0.291700000000     0.300925000000     0          
O        O      0.757900000000     0.936200000000     0.331475000000     0          
O        O      0.665900000000     0.913500000000     0.315975000000     0          
O        O      0.596300000000     0.935800000000     0.331475000000     0          
O        O      0.572200000000     0.845900000000     0.306100000000     0          
O        O      0.482400000000     0.822000000000     0.331500000000     0          
T        Si     0.710000000000     0.904000000000     0.300925000000     0          
T        Si     0.612300000000     0.903900000000     0.300950000000     0          
T        Si     0.514300000000     0.806000000000     0.300925000000     0          
O        O      0.821700000000     0.757900000000     0.331475000000     0          
O        O      0.752400000000     0.665900000000     0.315975000000     0          
O        O      0.660500000000     0.596300000000     0.331475000000     0          
O        O      0.726300000000     0.572200000000     0.306100000000     0          
O        O      0.660400000000     0.482400000000     0.331500000000     0          
T        Si     0.806000000000     0.710000000000     0.300925000000     0          
T        Si     0.708400000000     0.612300000000     0.300950000000     0          
T        Si     0.708300000000     0.514300000000     0.300925000000     0          
O        O      0.063800000000     0.821700000000     0.331475000000     0          
O        O      0.086500000000     0.752400000000     0.315975000000     0          
O        O      0.064200000000     0.660500000000     0.331475000000     0          
O        O      0.154100000000     0.726300000000     0.306100000000     0          
O        O      0.178000000000     0.660400000000     0.331500000000     0          
T        Si     0.096000000000     0.806000000000     0.300925000000     0          
T        Si     0.096100000000     0.708400000000     0.300950000000     0          
T        Si     0.194000000000     0.708300000000     0.300925000000     0          
O        O      0.242100000000     0.063800000000     0.331475000000     0          
O        O      0.334100000000     0.086500000000     0.315975000000     0          
O        O      0.403700000000     0.064200000000     0.331475000000     0          
O        O      0.427800000000     0.154100000000     0.306100000000     0          
O        O      0.517600000000     0.178000000000     0.331500000000     0          
T        Si     0.290000000000     0.096000000000     0.300925000000     0          
T        Si     0.387700000000     0.096100000000     0.300950000000     0          
T        Si     0.485700000000     0.194000000000     0.300925000000     0          
O        O      0.163100000000     0.163100000000     0.625000000000     0          
O        O      0.189600000000     0.094800000000     0.625000000000     0          
O        O      0.242100000000     0.178300000000     0.581475000000     0          
O        O      0.307500000000     0.153800000000     0.556025000000     0          
O        O      0.276100000000     0.196500000000     0.500000000000     0          
O        O      0.334100000000     0.247600000000     0.565975000000     0          
O        O      0.385400000000     0.305500000000     0.500000000000     0          
O        O      0.403700000000     0.339500000000     0.581475000000     0          
O        O      0.427800000000     0.273700000000     0.556100000000     0          
O        O      0.418300000000     0.418300000000     0.625000000000     0          
O        O      0.487100000000     0.392600000000     0.625000000000     0          
O        O      0.581600000000     0.418400000000     0.625000000000     0          
O        O      0.517600000000     0.339600000000     0.581500000000     0          
O        O      0.495400000000     0.247700000000     0.565675000000     0          
O        O      0.501900000000     0.305900000000     0.500000000000     0          
T        Si     0.290000000000     0.194000000000     0.550925000000     0          
T        Si     0.387700000000     0.291600000000     0.550950000000     0          
T        Si     0.485700000000     0.291700000000     0.550925000000     0          
T        Si     0.209200000000     0.153300000000     0.625000000000     0          
T        Si     0.428500000000     0.372500000000     0.625000000000     0          
T        Si     0.525800000000     0.372700000000     0.625000000000     0          
O        O      0.000000000000     0.163100000000     0.625000000000     0          
O        O      0.094800000000     0.189600000000     0.625000000000     0          
O        O      0.063800000000     0.242100000000     0.581475000000     0          
O        O      0.153700000000     0.307500000000     0.556025000000     0          
O        O      0.079600000000     0.276100000000     0.500000000000     0          
O        O      0.086500000000     0.334100000000     0.565975000000     0          
O        O      0.079900000000     0.385400000000     0.500000000000     0          
O        O      0.064200000000     0.403700000000     0.581475000000     0          
O        O      0.154100000000     0.427800000000     0.556100000000     0          
O        O      0.000000000000     0.418300000000     0.625000000000     0          
O        O      0.094500000000     0.487100000000     0.625000000000     0          
O        O      0.163200000000     0.581600000000     0.625000000000     0          
O        O      0.178000000000     0.517600000000     0.581500000000     0          
O        O      0.247700000000     0.495400000000     0.565675000000     0          
O        O      0.196000000000     0.501900000000     0.500000000000     0          
T        Si     0.096000000000     0.290000000000     0.550925000000     0          
T        Si     0.096100000000     0.387700000000     0.550950000000     0          
T        Si     0.194000000000     0.485700000000     0.550925000000     0          
T        Si     0.055900000000     0.209200000000     0.625000000000     0          
T        Si     0.056000000000     0.428500000000     0.625000000000     0          
T        Si     0.153100000000     0.525800000000     0.625000000000     0          
O        O      0.836900000000     0.000000000000     0.625000000000     0          
O        O      0.905200000000     0.094800000000     0.625000000000     0          
O        O      0.821700000000     0.063800000000     0.581475000000     0          
O        O      0.846200000000     0.153700000000     0.556025000000     0          
O        O      0.803500000000     0.079600000000     0.500000000000     0          
O        O      0.752400000000     0.086500000000     0.565975000000     0          
O        O      0.694500000000     0.079900000000     0.500000000000     0          
O        O      0.660500000000     0.064200000000     0.581475000000     0          
O        O      0.726300000000     0.154100000000     0.556100000000     0          
O        O      0.581700000000     0.000000000000     0.625000000000     0          
O        O      0.607400000000     0.094500000000     0.625000000000     0          
O        O      0.581600000000     0.163200000000     0.625000000000     0          
O        O      0.660400000000     0.178000000000     0.581500000000     0          
O        O      0.752300000000     0.247700000000     0.565675000000     0          
O        O      0.694100000000     0.196000000000     0.500000000000     0          
T        Si     0.806000000000     0.096000000000     0.550925000000     0          
T        Si     0.708400000000     0.096100000000     0.550950000000     0          
T        Si     0.708300000000     0.194000000000     0.550925000000     0          
T        Si     0.846700000000     0.055900000000     0.625000000000     0          
T        Si     0.627500000000     0.056000000000     0.625000000000     0          
T        Si     0.627300000000     0.153100000000     0.625000000000     0          
O        O      0.836900000000     0.836900000000     0.625000000000     0          
O        O      0.810400000000     0.905200000000     0.625000000000     0          
O        O      0.757900000000     0.821700000000     0.581475000000     0          
O        O      0.692500000000     0.846200000000     0.556025000000     0          
O        O      0.723900000000     0.803500000000     0.500000000000     0          
O        O      0.665900000000     0.752400000000     0.565975000000     0          
O        O      0.614600000000     0.694500000000     0.500000000000     0          
O        O      0.596300000000     0.660500000000     0.581475000000     0          
O        O      0.572200000000     0.726300000000     0.556100000000     0          
O        O      0.581700000000     0.581700000000     0.625000000000     0          
O        O      0.512900000000     0.607400000000     0.625000000000     0          
O        O      0.418400000000     0.581600000000     0.625000000000     0          
O        O      0.482400000000     0.660400000000     0.581500000000     0          
O        O      0.504600000000     0.752300000000     0.565675000000     0          
O        O      0.498100000000     0.694100000000     0.500000000000     0          
T        Si     0.710000000000     0.806000000000     0.550925000000     0          
T        Si     0.612300000000     0.708400000000     0.550950000000     0          
T        Si     0.514300000000     0.708300000000     0.550925000000     0          
T        Si     0.790800000000     0.846700000000     0.625000000000     0          
T        Si     0.571500000000     0.627500000000     0.625000000000     0          
T        Si     0.474200000000     0.627300000000     0.625000000000     0          
O        O      0.000000000000     0.836900000000     0.625000000000     0          
O        O      0.905200000000     0.810400000000     0.625000000000     0          
O        O      0.936200000000     0.757900000000     0.581475000000     0          
O        O      0.846300000000     0.692500000000     0.556025000000     0          
O        O      0.920400000000     0.723900000000     0.500000000000     0          
O        O      0.913500000000     0.665900000000     0.565975000000     0          
O        O      0.920100000000     0.614600000000     0.500000000000     0          
O        O      0.935800000000     0.596300000000     0.581475000000     0          
O        O      0.845900000000     0.572200000000     0.556100000000     0          
O        O      0.000000000000     0.581700000000     0.625000000000     0          
O        O      0.905500000000     0.512900000000     0.625000000000     0          
O        O      0.836800000000     0.418400000000     0.625000000000     0          
O        O      0.822000000000     0.482400000000     0.581500000000     0          
O        O      0.752300000000     0.504600000000     0.565675000000     0          
O        O      0.804000000000     0.498100000000     0.500000000000     0          
T        Si     0.904000000000     0.710000000000     0.550925000000     0          
T        Si     0.903900000000     0.612300000000     0.550950000000     0          
T        Si     0.806000000000     0.514300000000     0.550925000000     0          
T        Si     0.944100000000     0.790800000000     0.625000000000     0          
T        Si     0.944000000000     0.571500000000     0.625000000000     0          
T        Si     0.846900000000     0.474200000000     0.625000000000     0          
O        O      0.163100000000     0.000000000000     0.625000000000     0          
O        O      0.094800000000     0.905200000000     0.625000000000     0          
O        O      0.178300000000     0.936200000000     0.581475000000     0          
O        O      0.153800000000     0.846300000000     0.556025000000     0          
O        O      0.196500000000     0.920400000000     0.500000000000     0          
O        O      0.247600000000     0.913500000000     0.565975000000     0          
O        O      0.305500000000     0.920100000000     0.500000000000     0          
O        O      0.339500000000     0.935800000000     0.581475000000     0          
O        O      0.273700000000     0.845900000000     0.556100000000     0          
O        O      0.418300000000     0.000000000000     0.625000000000     0          
O        O      0.392600000000     0.905500000000     0.625000000000     0          
O        O      0.418400000000     0.836800000000     0.625000000000     0          
O        O      0.339600000000     0.822000000000     0.581500000000     0          
O        O      0.247700000000     0.752300000000     0.565675000000     0          
O        O      0.305900000000     0.804000000000     0.500000000000     0          
T        Si     0.194000000000     0.904000000000     0.550925000000     0          
T        Si     0.291600000000     0.903900000000     0.550950000000     0          
T        Si     0.291700000000     0.806000000000     0.550925000000     0          
T        Si     0.153300000000     0.944100000000     0.625000000000     0          
T        Si     0.372500000000     0.944000000000     0.625000000000     0          
T        Si     0.372700000000     0.846900000000     0.625000000000     0          
O        O      0.821700000000     0.757900000000     0.668525000000     0          
O        O      0.846200000000     0.692500000000     0.693975000000     0          
O        O      0.803500000000     0.723900000000     0.500000000000     0          
O        O      0.752400000000     0.665900000000     0.684025000000     0          
O        O      0.694500000000     0.614600000000     0.500000000000     0          
O        O      0.660500000000     0.596300000000     0.668525000000     0          
O        O      0.726300000000     0.572200000000     0.693900000000     0          
O        O      0.607400000000     0.512900000000     0.625000000000     0          
O        O      0.660400000000     0.482400000000     0.668500000000     0          
O        O      0.752300000000     0.504600000000     0.684325000000     0          
O        O      0.694100000000     0.498100000000     0.500000000000     0          
T        Si     0.806000000000     0.710000000000     0.699075000000     0          
T        Si     0.708400000000     0.612300000000     0.699050000000     0          
T        Si     0.708300000000     0.514300000000     0.699075000000     0          
T        Si     0.846700000000     0.790800000000     0.625000000000     0          
T        Si     0.627500000000     0.571500000000     0.625000000000     0          
T        Si     0.627300000000     0.474200000000     0.625000000000     0          
O        O      0.063800000000     0.821700000000     0.668525000000     0          
O        O      0.153700000000     0.846200000000     0.693975000000     0          
O        O      0.079600000000     0.803500000000     0.500000000000     0          
O        O      0.086500000000     0.752400000000     0.684025000000     0          
O        O      0.079900000000     0.694500000000     0.500000000000     0          
O        O      0.064200000000     0.660500000000     0.668525000000     0          
O        O      0.154100000000     0.726300000000     0.693900000000     0          
O        O      0.094500000000     0.607400000000     0.625000000000     0          
O        O      0.178000000000     0.660400000000     0.668500000000     0          
O        O      0.247700000000     0.752300000000     0.684325000000     0          
O        O      0.196000000000     0.694100000000     0.500000000000     0          
T        Si     0.096000000000     0.806000000000     0.699075000000     0          
T        Si     0.096100000000     0.708400000000     0.699050000000     0          
T        Si     0.194000000000     0.708300000000     0.699075000000     0          
T        Si     0.055900000000     0.846700000000     0.625000000000     0          
T        Si     0.056000000000     0.627500000000     0.625000000000     0          
T        Si     0.153100000000     0.627300000000     0.625000000000     0          
O        O      0.242100000000     0.063800000000     0.668525000000     0          
O        O      0.307500000000     0.153700000000     0.693975000000     0          
O        O      0.276100000000     0.079600000000     0.500000000000     0          
O        O      0.334100000000     0.086500000000     0.684025000000     0          
O        O      0.385400000000     0.079900000000     0.500000000000     0          
O        O      0.403700000000     0.064200000000     0.668525000000     0          
O        O      0.427800000000     0.154100000000     0.693900000000     0          
O        O      0.487100000000     0.094500000000     0.625000000000     0          
O        O      0.517600000000     0.178000000000     0.668500000000     0          
O        O      0.495400000000     0.247700000000     0.684325000000     0          
O        O      0.501900000000     0.196000000000     0.500000000000     0          
T        Si     0.290000000000     0.096000000000     0.699075000000     0          
T        Si     0.387700000000     0.096100000000     0.699050000000     0          
T        Si     0.485700000000     0.194000000000     0.699075000000     0          
T        Si     0.209200000000     0.055900000000     0.625000000000     0          
T        Si     0.428500000000     0.056000000000     0.625000000000     0          
T        Si     0.525800000000     0.153100000000     0.625000000000     0          
O        O      0.178300000000     0.242100000000     0.668525000000     0          
O        O      0.153800000000     0.307500000000     0.693975000000     0          
O        O      0.196500000000     0.276100000000     0.500000000000     0          
O        O      0.247600000000     0.334100000000     0.684025000000     0          
O        O      0.305500000000     0.385400000000     0.500000000000     0          
O        O      0.339500000000     0.403700000000     0.668525000000     0          
O        O      0.273700000000     0.427800000000     0.693900000000     0          
O        O      0.392600000000     0.487100000000     0.625000000000     0          
O        O      0.339600000000     0.517600000000     0.668500000000     0          
O        O      0.247700000000     0.495400000000     0.684325000000     0          
O        O      0.305900000000     0.501900000000     0.500000000000     0          
T        Si     0.194000000000     0.290000000000     0.699075000000     0          
T        Si     0.291600000000     0.387700000000     0.699050000000     0          
T        Si     0.291700000000     0.485700000000     0.699075000000     0          
T        Si     0.153300000000     0.209200000000     0.625000000000     0          
T        Si     0.372500000000     0.428500000000     0.625000000000     0          
T        Si     0.372700000000     0.525800000000     0.625000000000     0          
O        O      0.936200000000     0.178300000000     0.668525000000     0          
O        O      0.846300000000     0.153800000000     0.693975000000     0          
O        O      0.920400000000     0.196500000000     0.500000000000     0          
O        O      0.913500000000     0.247600000000     0.684025000000     0          
O        O      0.920100000000     0.305500000000     0.500000000000     0          
O        O      0.935800000000     0.339500000000     0.668525000000     0          
O        O      0.845900000000     0.273700000000     0.693900000000     0          
O        O      0.905500000000     0.392600000000     0.625000000000     0          
O        O      0.822000000000     0.339600000000     0.668500000000     0          
O        O      0.752300000000     0.247700000000     0.684325000000     0          
O        O      0.804000000000     0.305900000000     0.500000000000     0          
T        Si     0.904000000000     0.194000000000     0.699075000000     0          
T        Si     0.903900000000     0.291600000000     0.699050000000     0          
T        Si     0.806000000000     0.291700000000     0.699075000000     0          
T        Si     0.944100000000     0.153300000000     0.625000000000     0          
T        Si     0.944000000000     0.372500000000     0.625000000000     0          
T        Si     0.846900000000     0.372700000000     0.625000000000     0          
O        O      0.757900000000     0.936200000000     0.668525000000     0          
O        O      0.692500000000     0.846300000000     0.693975000000     0          
O        O      0.723900000000     0.920400000000     0.500000000000     0          
O        O      0.665900000000     0.913500000000     0.684025000000     0          
O        O      0.614600000000     0.920100000000     0.500000000000     0          
O        O      0.596300000000     0.935800000000     0.668525000000     0          
O        O      0.572200000000     0.845900000000     0.693900000000     0          
O        O      0.512900000000     0.905500000000     0.625000000000     0          
O        O      0.482400000000     0.822000000000     0.668500000000     0          
O        O      0.504600000000     0.752300000000     0.684325000000     0          
O        O      0.498100000000     0.804000000000     0.500000000000     0          
T        Si     0.710000000000     0.904000000000     0.699075000000     0          
T        Si     0.612300000000     0.903900000000     0.699050000000     0          
T        Si     0.514300000000     0.806000000000     0.699075000000     0          
T        Si     0.790800000000     0.944100000000     0.625000000000     0          
T        Si     0.571500000000     0.944000000000     0.625000000000     0          
T        Si     0.474200000000     0.846900000000     0.625000000000     0          
O        O      0.757900000000     0.821700000000     0.668525000000     0          
O        O      0.665900000000     0.752400000000     0.684025000000     0          
O        O      0.596300000000     0.660500000000     0.668525000000     0          
O        O      0.572200000000     0.726300000000     0.693900000000     0          
O        O      0.482400000000     0.660400000000     0.668500000000     0          
T        Si     0.710000000000     0.806000000000     0.699075000000     0          
T        Si     0.612300000000     0.708400000000     0.699050000000     0          
T        Si     0.514300000000     0.708300000000     0.699075000000     0          
O        O      0.936200000000     0.757900000000     0.668525000000     0          
O        O      0.913500000000     0.665900000000     0.684025000000     0          
O        O      0.935800000000     0.596300000000     0.668525000000     0          
O        O      0.845900000000     0.572200000000     0.693900000000     0          
O        O      0.822000000000     0.482400000000     0.668500000000     0          
T        Si     0.904000000000     0.710000000000     0.699075000000     0          
T        Si     0.903900000000     0.612300000000     0.699050000000     0          
T        Si     0.806000000000     0.514300000000     0.699075000000     0          
O        O      0.178300000000     0.936200000000     0.668525000000     0          
O        O      0.247600000000     0.913500000000     0.684025000000     0          
O        O      0.339500000000     0.935800000000     0.668525000000     0          
O        O      0.273700000000     0.845900000000     0.693900000000     0          
O        O      0.339600000000     0.822000000000     0.668500000000     0          
T        Si     0.194000000000     0.904000000000     0.699075000000     0          
T        Si     0.291600000000     0.903900000000     0.699050000000     0          
T        Si     0.291700000000     0.806000000000     0.699075000000     0          
O        O      0.242100000000     0.178300000000     0.668525000000     0          
O        O      0.334100000000     0.247600000000     0.684025000000     0          
O        O      0.403700000000     0.339500000000     0.668525000000     0          
O        O      0.427800000000     0.273700000000     0.693900000000     0          
O        O      0.517600000000     0.339600000000     0.668500000000     0          
T        Si     0.290000000000     0.194000000000     0.699075000000     0          
T        Si     0.387700000000     0.291600000000     0.699050000000     0          
T        Si     0.485700000000     0.291700000000     0.699075000000     0          
O        O      0.063800000000     0.242100000000     0.668525000000     0          
O        O      0.086500000000     0.334100000000     0.684025000000     0          
O        O      0.064200000000     0.403700000000     0.668525000000     0          
O        O      0.154100000000     0.427800000000     0.693900000000     0          
O        O      0.178000000000     0.517600000000     0.668500000000     0          
T        Si     0.096000000000     0.290000000000     0.699075000000     0          
T        Si     0.096100000000     0.387700000000     0.699050000000     0          
T        Si     0.194000000000     0.485700000000     0.699075000000     0          
O        O      0.821700000000     0.063800000000     0.668525000000     0          
O        O      0.752400000000     0.086500000000     0.684025000000     0          
O        O      0.660500000000     0.064200000000     0.668525000000     0          
O        O      0.726300000000     0.154100000000     0.693900000000     0          
O        O      0.660400000000     0.178000000000     0.668500000000     0          
T        Si     0.806000000000     0.096000000000     0.699075000000     0          
T        Si     0.708400000000     0.096100000000     0.699050000000     0          
T        Si     0.708300000000     0.194000000000     0.699075000000     0          
O        O      0.178300000000     0.242100000000     0.581475000000     0          
O        O      0.247600000000     0.334100000000     0.565975000000     0          
O        O      0.339500000000     0.403700000000     0.581475000000     0          
O        O      0.273700000000     0.427800000000     0.556100000000     0          
O        O      0.339600000000     0.517600000000     0.581500000000     0          
T        Si     0.194000000000     0.290000000000     0.550925000000     0          
T        Si     0.291600000000     0.387700000000     0.550950000000     0          
T        Si     0.291700000000     0.485700000000     0.550925000000     0          
O        O      0.936200000000     0.178300000000     0.581475000000     0          
O        O      0.913500000000     0.247600000000     0.565975000000     0          
O        O      0.935800000000     0.339500000000     0.581475000000     0          
O        O      0.845900000000     0.273700000000     0.556100000000     0          
O        O      0.822000000000     0.339600000000     0.581500000000     0          
T        Si     0.904000000000     0.194000000000     0.550925000000     0          
T        Si     0.903900000000     0.291600000000     0.550950000000     0          
T        Si     0.806000000000     0.291700000000     0.550925000000     0          
O        O      0.757900000000     0.936200000000     0.581475000000     0          
O        O      0.665900000000     0.913500000000     0.565975000000     0          
O        O      0.596300000000     0.935800000000     0.581475000000     0          
O        O      0.572200000000     0.845900000000     0.556100000000     0          
O        O      0.482400000000     0.822000000000     0.581500000000     0          
T        Si     0.710000000000     0.904000000000     0.550925000000     0          
T        Si     0.612300000000     0.903900000000     0.550950000000     0          
T        Si     0.514300000000     0.806000000000     0.550925000000     0          
O        O      0.821700000000     0.757900000000     0.581475000000     0          
O        O      0.752400000000     0.665900000000     0.565975000000     0          
O        O      0.660500000000     0.596300000000     0.581475000000     0          
O        O      0.726300000000     0.572200000000     0.556100000000     0          
O        O      0.660400000000     0.482400000000     0.581500000000     0          
T        Si     0.806000000000     0.710000000000     0.550925000000     0          
T        Si     0.708400000000     0.612300000000     0.550950000000     0          
T        Si     0.708300000000     0.514300000000     0.550925000000     0          
O        O      0.063800000000     0.821700000000     0.581475000000     0          
O        O      0.086500000000     0.752400000000     0.565975000000     0          
O        O      0.064200000000     0.660500000000     0.581475000000     0          
O        O      0.154100000000     0.726300000000     0.556100000000     0          
O        O      0.178000000000     0.660400000000     0.581500000000     0          
T        Si     0.096000000000     0.806000000000     0.550925000000     0          
T        Si     0.096100000000     0.708400000000     0.550950000000     0          
T        Si     0.194000000000     0.708300000000     0.550925000000     0          
O        O      0.242100000000     0.063800000000     0.581475000000     0          
O        O      0.334100000000     0.086500000000     0.565975000000     0          
O        O      0.403700000000     0.064200000000     0.581475000000     0          
O        O      0.427800000000     0.154100000000     0.556100000000     0          
O        O      0.517600000000     0.178000000000     0.581500000000     0          
T        Si     0.290000000000     0.096000000000     0.550925000000     0          
T        Si     0.387700000000     0.096100000000     0.550950000000     0          
T        Si     0.485700000000     0.194000000000     0.550925000000     0          
O        O      0.163100000000     0.163100000000     0.875000000000     0          
O        O      0.189600000000     0.094800000000     0.875000000000     0          
O        O      0.242100000000     0.178300000000     0.831475000000     0          
O        O      0.307500000000     0.153800000000     0.806025000000     0          
O        O      0.276100000000     0.196500000000     0.750000000000     0          
O        O      0.334100000000     0.247600000000     0.815975000000     0          
O        O      0.385400000000     0.305500000000     0.750000000000     0          
O        O      0.403700000000     0.339500000000     0.831475000000     0          
O        O      0.427800000000     0.273700000000     0.806100000000     0          
O        O      0.418300000000     0.418300000000     0.875000000000     0          
O        O      0.487100000000     0.392600000000     0.875000000000     0          
O        O      0.581600000000     0.418400000000     0.875000000000     0          
O        O      0.517600000000     0.339600000000     0.831500000000     0          
O        O      0.495400000000     0.247700000000     0.815675000000     0          
O        O      0.501900000000     0.305900000000     0.750000000000     0          
T        Si     0.290000000000     0.194000000000     0.800925000000     0          
T        Si     0.387700000000     0.291600000000     0.800950000000     0          
T        Si     0.485700000000     0.291700000000     0.800925000000     0          
T        Si     0.209200000000     0.153300000000     0.875000000000     0          
T        Si     0.428500000000     0.372500000000     0.875000000000     0          
T        Si     0.525800000000     0.372700000000     0.875000000000     0          
O        O      0.000000000000     0.163100000000     0.875000000000     0          
O        O      0.094800000000     0.189600000000     0.875000000000     0          
O        O      0.063800000000     0.242100000000     0.831475000000     0          
O        O      0.153700000000     0.307500000000     0.806025000000     0          
O        O      0.079600000000     0.276100000000     0.750000000000     0          
O        O      0.086500000000     0.334100000000     0.815975000000     0          
O        O      0.079900000000     0.385400000000     0.750000000000     0          
O        O      0.064200000000     0.403700000000     0.831475000000     0          
O        O      0.154100000000     0.427800000000     0.806100000000     0          
O        O      0.000000000000     0.418300000000     0.875000000000     0          
O        O      0.094500000000     0.487100000000     0.875000000000     0          
O        O      0.163200000000     0.581600000000     0.875000000000     0          
O        O      0.178000000000     0.517600000000     0.831500000000     0          
O        O      0.247700000000     0.495400000000     0.815675000000     0          
O        O      0.196000000000     0.501900000000     0.750000000000     0          
T        Si     0.096000000000     0.290000000000     0.800925000000     0          
T        Si     0.096100000000     0.387700000000     0.800950000000     0          
T        Si     0.194000000000     0.485700000000     0.800925000000     0          
T        Si     0.055900000000     0.209200000000     0.875000000000     0          
T        Si     0.056000000000     0.428500000000     0.875000000000     0          
T        Si     0.153100000000     0.525800000000     0.875000000000     0          
O        O      0.836900000000     0.000000000000     0.875000000000     0          
O        O      0.905200000000     0.094800000000     0.875000000000     0          
O        O      0.821700000000     0.063800000000     0.831475000000     0          
O        O      0.846200000000     0.153700000000     0.806025000000     0          
O        O      0.803500000000     0.079600000000     0.750000000000     0          
O        O      0.752400000000     0.086500000000     0.815975000000     0          
O        O      0.694500000000     0.079900000000     0.750000000000     0          
O        O      0.660500000000     0.064200000000     0.831475000000     0          
O        O      0.726300000000     0.154100000000     0.806100000000     0          
O        O      0.581700000000     0.000000000000     0.875000000000     0          
O        O      0.607400000000     0.094500000000     0.875000000000     0          
O        O      0.581600000000     0.163200000000     0.875000000000     0          
O        O      0.660400000000     0.178000000000     0.831500000000     0          
O        O      0.752300000000     0.247700000000     0.815675000000     0          
O        O      0.694100000000     0.196000000000     0.750000000000     0          
T        Si     0.806000000000     0.096000000000     0.800925000000     0          
T        Si     0.708400000000     0.096100000000     0.800950000000     0          
T        Si     0.708300000000     0.194000000000     0.800925000000     0          
T        Si     0.846700000000     0.055900000000     0.875000000000     0          
T        Si     0.627500000000     0.056000000000     0.875000000000     0          
T        Si     0.627300000000     0.153100000000     0.875000000000     0          
O        O      0.836900000000     0.836900000000     0.875000000000     0          
O        O      0.810400000000     0.905200000000     0.875000000000     0          
O        O      0.757900000000     0.821700000000     0.831475000000     0          
O        O      0.692500000000     0.846200000000     0.806025000000     0          
O        O      0.723900000000     0.803500000000     0.750000000000     0          
O        O      0.665900000000     0.752400000000     0.815975000000     0          
O        O      0.614600000000     0.694500000000     0.750000000000     0          
O        O      0.596300000000     0.660500000000     0.831475000000     0          
O        O      0.572200000000     0.726300000000     0.806100000000     0          
O        O      0.581700000000     0.581700000000     0.875000000000     0          
O        O      0.512900000000     0.607400000000     0.875000000000     0          
O        O      0.418400000000     0.581600000000     0.875000000000     0          
O        O      0.482400000000     0.660400000000     0.831500000000     0          
O        O      0.504600000000     0.752300000000     0.815675000000     0          
O        O      0.498100000000     0.694100000000     0.750000000000     0          
T        Si     0.710000000000     0.806000000000     0.800925000000     0          
T        Si     0.612300000000     0.708400000000     0.800950000000     0          
T        Si     0.514300000000     0.708300000000     0.800925000000     0          
T        Si     0.790800000000     0.846700000000     0.875000000000     0          
T        Si     0.571500000000     0.627500000000     0.875000000000     0          
T        Si     0.474200000000     0.627300000000     0.875000000000     0          
O        O      0.000000000000     0.836900000000     0.875000000000     0          
O        O      0.905200000000     0.810400000000     0.875000000000     0          
O        O      0.936200000000     0.757900000000     0.831475000000     0          
O        O      0.846300000000     0.692500000000     0.806025000000     0          
O        O      0.920400000000     0.723900000000     0.750000000000     0          
O        O      0.913500000000     0.665900000000     0.815975000000     0          
O        O      0.920100000000     0.614600000000     0.750000000000     0          
O        O      0.935800000000     0.596300000000     0.831475000000     0          
O        O      0.845900000000     0.572200000000     0.806100000000     0          
O        O      0.000000000000     0.581700000000     0.875000000000     0          
O        O      0.905500000000     0.512900000000     0.875000000000     0          
O        O      0.836800000000     0.418400000000     0.875000000000     0          
O        O      0.822000000000     0.482400000000     0.831500000000     0          
O        O      0.752300000000     0.504600000000     0.815675000000     0          
O        O      0.804000000000     0.498100000000     0.750000000000     0          
T        Si     0.904000000000     0.710000000000     0.800925000000     0          
T        Si     0.903900000000     0.612300000000     0.800950000000     0          
T        Si     0.806000000000     0.514300000000     0.800925000000     0          
T        Si     0.944100000000     0.790800000000     0.875000000000     0          
T        Si     0.944000000000     0.571500000000     0.875000000000     0          
T        Si     0.846900000000     0.474200000000     0.875000000000     0          
O        O      0.163100000000     0.000000000000     0.875000000000     0          
O        O      0.094800000000     0.905200000000     0.875000000000     0          
O        O      0.178300000000     0.936200000000     0.831475000000     0          
O        O      0.153800000000     0.846300000000     0.806025000000     0          
O        O      0.196500000000     0.920400000000     0.750000000000     0          
O        O      0.247600000000     0.913500000000     0.815975000000     0          
O        O      0.305500000000     0.920100000000     0.750000000000     0          
O        O      0.339500000000     0.935800000000     0.831475000000     0          
O        O      0.273700000000     0.845900000000     0.806100000000     0          
O        O      0.418300000000     0.000000000000     0.875000000000     0          
O        O      0.392600000000     0.905500000000     0.875000000000     0          
O        O      0.418400000000     0.836800000000     0.875000000000     0          
O        O      0.339600000000     0.822000000000     0.831500000000     0          
O        O      0.247700000000     0.752300000000     0.815675000000     0          
O        O      0.305900000000     0.804000000000     0.750000000000     0          
T        Si     0.194000000000     0.904000000000     0.800925000000     0          
T        Si     0.291600000000     0.903900000000     0.800950000000     0          
T        Si     0.291700000000     0.806000000000     0.800925000000     0          
T        Si     0.153300000000     0.944100000000     0.875000000000     0          
T        Si     0.372500000000     0.944000000000     0.875000000000     0          
T        Si     0.372700000000     0.846900000000     0.875000000000     0          
O        O      0.821700000000     0.757900000000     0.918525000000     0          
O        O      0.846200000000     0.692500000000     0.943975000000     0          
O        O      0.803500000000     0.723900000000     0.750000000000     0          
O        O      0.752400000000     0.665900000000     0.934025000000     0          
O        O      0.694500000000     0.614600000000     0.750000000000     0          
O        O      0.660500000000     0.596300000000     0.918525000000     0          
O        O      0.726300000000     0.572200000000     0.943900000000     0          
O        O      0.607400000000     0.512900000000     0.875000000000     0          
O        O      0.660400000000     0.482400000000     0.918500000000     0          
O        O      0.752300000000     0.504600000000     0.934325000000     0          
O        O      0.694100000000     0.498100000000     0.750000000000     0          
T        Si     0.806000000000     0.710000000000     0.949075000000     0          
T        Si     0.708400000000     0.612300000000     0.949050000000     0          
T        Si     0.708300000000     0.514300000000     0.949075000000     0          
T        Si     0.846700000000     0.790800000000     0.875000000000     0          
T        Si     0.627500000000     0.571500000000     0.875000000000     0          
T        Si     0.627300000000     0.474200000000     0.875000000000     0          
O        O      0.063800000000     0.821700000000     0.918525000000     0          
O        O      0.153700000000     0.846200000000     0.943975000000     0          
O        O      0.079600000000     0.803500000000     0.750000000000     0          
O        O      0.086500000000     0.752400000000     0.934025000000     0          
O        O      0.079900000000     0.694500000000     0.750000000000     0          
O        O      0.064200000000     0.660500000000     0.918525000000     0          
O        O      0.154100000000     0.726300000000     0.943900000000     0          
O        O      0.094500000000     0.607400000000     0.875000000000     0          
O        O      0.178000000000     0.660400000000     0.918500000000     0          
O        O      0.247700000000     0.752300000000     0.934325000000     0          
O        O      0.196000000000     0.694100000000     0.750000000000     0          
T        Si     0.096000000000     0.806000000000     0.949075000000     0          
T        Si     0.096100000000     0.708400000000     0.949050000000     0          
T        Si     0.194000000000     0.708300000000     0.949075000000     0          
T        Si     0.055900000000     0.846700000000     0.875000000000     0          
T        Si     0.056000000000     0.627500000000     0.875000000000     0          
T        Si     0.153100000000     0.627300000000     0.875000000000     0          
O        O      0.242100000000     0.063800000000     0.918525000000     0          
O        O      0.307500000000     0.153700000000     0.943975000000     0          
O        O      0.276100000000     0.079600000000     0.750000000000     0          
O        O      0.334100000000     0.086500000000     0.934025000000     0          
O        O      0.385400000000     0.079900000000     0.750000000000     0          
O        O      0.403700000000     0.064200000000     0.918525000000     0          
O        O      0.427800000000     0.154100000000     0.943900000000     0          
O        O      0.487100000000     0.094500000000     0.875000000000     0          
O        O      0.517600000000     0.178000000000     0.918500000000     0          
O        O      0.495400000000     0.247700000000     0.934325000000     0          
O        O      0.501900000000     0.196000000000     0.750000000000     0          
T        Si     0.290000000000     0.096000000000     0.949075000000     0          
T        Si     0.387700000000     0.096100000000     0.949050000000     0          
T        Si     0.485700000000     0.194000000000     0.949075000000     0          
T        Si     0.209200000000     0.055900000000     0.875000000000     0          
T        Si     0.428500000000     0.056000000000     0.875000000000     0          
T        Si     0.525800000000     0.153100000000     0.875000000000     0          
O        O      0.178300000000     0.242100000000     0.918525000000     0          
O        O      0.153800000000     0.307500000000     0.943975000000     0          
O        O      0.196500000000     0.276100000000     0.750000000000     0          
O        O      0.247600000000     0.334100000000     0.934025000000     0          
O        O      0.305500000000     0.385400000000     0.750000000000     0          
O        O      0.339500000000     0.403700000000     0.918525000000     0          
O        O      0.273700000000     0.427800000000     0.943900000000     0          
O        O      0.392600000000     0.487100000000     0.875000000000     0          
O        O      0.339600000000     0.517600000000     0.918500000000     0          
O        O      0.247700000000     0.495400000000     0.934325000000     0          
O        O      0.305900000000     0.501900000000     0.750000000000     0          
T        Si     0.194000000000     0.290000000000     0.949075000000     0          
T        Si     0.291600000000     0.387700000000     0.949050000000     0          
T        Si     0.291700000000     0.485700000000     0.949075000000     0          
T        Si     0.153300000000     0.209200000000     0.875000000000     0          
T        Si     0.372500000000     0.428500000000     0.875000000000     0          
T        Si     0.372700000000     0.525800000000     0.875000000000     0          
O        O      0.936200000000     0.178300000000     0.918525000000     0          
O        O      0.846300000000     0.153800000000     0.943975000000     0          
O        O      0.920400000000     0.196500000000     0.750000000000     0          
O        O      0.913500000000     0.247600000000     0.934025000000     0          
O        O      0.920100000000     0.305500000000     0.750000000000     0          
O        O      0.935800000000     0.339500000000     0.918525000000     0          
O        O      0.845900000000     0.273700000000     0.943900000000     0          
O        O      0.905500000000     0.392600000000     0.875000000000     0          
O        O      0.822000000000     0.339600000000     0.918500000000     0          
O        O      0.752300000000     0.247700000000     0.934325000000     0          
O        O      0.804000000000     0.305900000000     0.750000000000     0          
T        Si     0.904000000000     0.194000000000     0.949075000000     0          
T        Si     0.903900000000     0.291600000000     0.949050000000     0          
T        Si     0.806000000000     0.291700000000     0.949075000000     0          
T        Si     0.944100000000     0.153300000000     0.875000000000     0          
T        Si     0.944000000000     0.372500000000     0.875000000000     0          
T        Si     0.846900000000     0.372700000000     0.875000000000     0          
O        O      0.757900000000     0.936200000000     0.918525000000     0          
O        O      0.692500000000     0.846300000000     0.943975000000     0          
O        O      0.723900000000     0.920400000000     0.750000000000     0          
O        O      0.665900000000     0.913500000000     0.934025000000     0          
O        O      0.614600000000     0.920100000000     0.750000000000     0          
O        O      0.596300000000     0.935800000000     0.918525000000     0          
O        O      0.572200000000     0.845900000000     0.943900000000     0          
O        O      0.512900000000     0.905500000000     0.875000000000     0          
O        O      0.482400000000     0.822000000000     0.918500000000     0          
O        O      0.504600000000     0.752300000000     0.934325000000     0          
O        O      0.498100000000     0.804000000000     0.750000000000     0          
T        Si     0.710000000000     0.904000000000     0.949075000000     0          
T        Si     0.612300000000     0.903900000000     0.949050000000     0          
T        Si     0.514300000000     0.806000000000     0.949075000000     0          
T        Si     0.790800000000     0.944100000000     0.875000000000     0          
T        Si     0.571500000000     0.944000000000     0.875000000000     0          
T        Si     0.474200000000     0.846900000000     0.875000000000     0          
O        O      0.757900000000     0.821700000000     0.918525000000     0          
O        O      0.665900000000     0.752400000000     0.934025000000     0          
O        O      0.596300000000     0.660500000000     0.918525000000     0          
O        O      0.572200000000     0.726300000000     0.943900000000     0          
O        O      0.482400000000     0.660400000000     0.918500000000     0          
T        Si     0.710000000000     0.806000000000     0.949075000000     0          
T        Si     0.612300000000     0.708400000000     0.949050000000     0          
T        Si     0.514300000000     0.708300000000     0.949075000000     0          
O        O      0.936200000000     0.757900000000     0.918525000000     0          
O        O      0.913500000000     0.665900000000     0.934025000000     0          
O        O      0.935800000000     0.596300000000     0.918525000000     0          
O        O      0.845900000000     0.572200000000     0.943900000000     0          
O        O      0.822000000000     0.482400000000     0.918500000000     0          
T        Si     0.904000000000     0.710000000000     0.949075000000     0          
T        Si     0.903900000000     0.612300000000     0.949050000000     0          
T        Si     0.806000000000     0.514300000000     0.949075000000     0          
O        O      0.178300000000     0.936200000000     0.918525000000     0          
O        O      0.247600000000     0.913500000000     0.934025000000     0          
O        O      0.339500000000     0.935800000000     0.918525000000     0          
O        O      0.273700000000     0.845900000000     0.943900000000     0          
O        O      0.339600000000     0.822000000000     0.918500000000     0          
T        Si     0.194000000000     0.904000000000     0.949075000000     0          
T        Si     0.291600000000     0.903900000000     0.949050000000     0          
T        Si     0.291700000000     0.806000000000     0.949075000000     0          
O        O      0.242100000000     0.178300000000     0.918525000000     0          
O        O      0.334100000000     0.247600000000     0.934025000000     0          
O        O      0.403700000000     0.339500000000     0.918525000000     0          
O        O      0.427800000000     0.273700000000     0.943900000000     0          
O        O      0.517600000000     0.339600000000     0.918500000000     0          
T        Si     0.290000000000     0.194000000000     0.949075000000     0          
T        Si     0.387700000000     0.291600000000     0.949050000000     0          
T        Si     0.485700000000     0.291700000000     0.949075000000     0          
O        O      0.063800000000     0.242100000000     0.918525000000     0          
O        O      0.086500000000     0.334100000000     0.934025000000     0          
O        O      0.064200000000     0.403700000000     0.918525000000     0          
O        O      0.154100000000     0.427800000000     0.943900000000     0          
O        O      0.178000000000     0.517600000000     0.918500000000     0          
T        Si     0.096000000000     0.290000000000     0.949075000000     0          
T        Si     0.096100000000     0.387700000000     0.949050000000     0          
T        Si     0.194000000000     0.485700000000     0.949075000000     0          
O        O      0.821700000000     0.063800000000     0.918525000000     0          
O        O      0.752400000000     0.086500000000     0.934025000000     0          
O        O      0.660500000000     0.064200000000     0.918525000000     0          
O        O      0.726300000000     0.154100000000     0.943900000000     0          
O        O      0.660400000000     0.178000000000     0.918500000000     0          
T        Si     0.806000000000     0.096000000000     0.949075000000     0          
T        Si     0.708400000000     0.096100000000     0.949050000000     0          
T        Si     0.708300000000     0.194000000000     0.949075000000     0          
O        O      0.178300000000     0.242100000000     0.831475000000     0          
O        O      0.247600000000     0.334100000000     0.815975000000     0          
O        O      0.339500000000     0.403700000000     0.831475000000     0          
O        O      0.273700000000     0.427800000000     0.806100000000     0          
O        O      0.339600000000     0.517600000000     0.831500000000     0          
T        Si     0.194000000000     0.290000000000     0.800925000000     0          
T        Si     0.291600000000     0.387700000000     0.800950000000     0          
T        Si     0.291700000000     0.485700000000     0.800925000000     0          
O        O      0.936200000000     0.178300000000     0.831475000000     0          
O        O      0.913500000000     0.247600000000     0.815975000000     0          
O        O      0.935800000000     0.339500000000     0.831475000000     0          
O        O      0.845900000000     0.273700000000     0.806100000000     0          
O        O      0.822000000000     0.339600000000     0.831500000000     0          
T        Si     0.904000000000     0.194000000000     0.800925000000     0          
T        Si     0.903900000000     0.291600000000     0.800950000000     0          
T        Si     0.806000000000     0.291700000000     0.800925000000     0          
O        O      0.757900000000     0.936200000000     0.831475000000     0          
O        O      0.665900000000     0.913500000000     0.815975000000     0          
O        O      0.596300000000     0.935800000000     0.831475000000     0          
O        O      0.572200000000     0.845900000000     0.806100000000     0          
O        O      0.482400000000     0.822000000000     0.831500000000     0          
T        Si     0.710000000000     0.904000000000     0.800925000000     0          
T        Si     0.612300000000     0.903900000000     0.800950000000     0          
T        Si     0.514300000000     0.806000000000     0.800925000000     0          
O        O      0.821700000000     0.757900000000     0.831475000000     0          
O        O      0.752400000000     0.665900000000     0.815975000000     0          
O        O      0.660500000000     0.596300000000     0.831475000000     0          
O        O      0.726300000000     0.572200000000     0.806100000000     0          
O        O      0.660400000000     0.482400000000     0.831500000000     0          
T        Si     0.806000000000     0.710000000000     0.800925000000     0          
T        Si     0.708400000000     0.612300000000     0.800950000000     0          
T        Si     0.708300000000     0.514300000000     0.800925000000     0          
O        O      0.063800000000     0.821700000000     0.831475000000     0          
O        O      0.086500000000     0.752400000000     0.815975000000     0          
O        O      0.064200000000     0.660500000000     0.831475000000     0          
O        O      0.154100000000     0.726300000000     0.806100000000     0          
O        O      0.178000000000     0.660400000000     0.831500000000     0          
T        Si     0.096000000000     0.806000000000     0.800925000000     0          
T        Si     0.096100000000     0.708400000000     0.800950000000     0          
T        Si     0.194000000000     0.708300000000     0.800925000000     0          
O        O      0.242100000000     0.063800000000     0.831475000000     0          
O        O      0.334100000000     0.086500000000     0.815975000000     0          
O        O      0.403700000000     0.064200000000     0.831475000000     0          
O        O      0.427800000000     0.154100000000     0.806100000000     0          
O        O      0.517600000000     0.178000000000     0.831500000000     0          
T        Si     0.290000000000     0.096000000000     0.800925000000     0          
T        Si     0.387700000000     0.096100000000     0.800950000000     0          
T        Si     0.485700000000     0.194000000000     0.800925000000     0          


