data_zeolite

_audit_creation_method RASPA-1.0
_audit_creation_date 2021-6-7
_audit_author_name ''

_cell_length_a    8.312
_cell_length_b    18.729
_cell_length_c    13.392
_cell_angle_alpha 90
_cell_angle_beta  90
_cell_angle_gamma 90
_cell_volume      33356.9

_symmetry_cell_setting          orthorhombic
_symmetry_space_group_name_Hall 'P 1'
_symmetry_space_group_name_H-M  'P 1'
_symmetry_Int_Tables_number     1

_symmetry_equiv_pos_as_xyz 'x,y,z'

loop_
_atom_site_label
_atom_site_type_symbol
_atom_site_fract_x
_atom_site_fract_y
_atom_site_fract_z
_atom_site_charge
T        Si     0.203450000000     0.019750000000     0.070300000000     0          
T        Si     0.078525000000     0.049300000000     0.470400000000     0          
T        Si     0.201700000000     0.125000000000     0.432350000000     0          
T        Si     0.046550000000     0.230250000000     0.070300000000     0          
T        Si     0.171475000000     0.200700000000     0.470400000000     0          
T        Si     0.048300000000     0.125000000000     0.432350000000     0          
T        Si     0.203450000000     0.480250000000     0.429700000000     0          
T        Si     0.078525000000     0.450700000000     0.029600000000     0          
T        Si     0.201700000000     0.375000000000     0.067650000000     0          
T        Si     0.046550000000     0.269750000000     0.429700000000     0          
T        Si     0.171475000000     0.299300000000     0.029600000000     0          
T        Si     0.048300000000     0.375000000000     0.067650000000     0          
T        Si     0.046550000000     0.480250000000     0.429700000000     0          
T        Si     0.171475000000     0.450700000000     0.029600000000     0          
T        Si     0.203450000000     0.269750000000     0.429700000000     0          
T        Si     0.078525000000     0.299300000000     0.029600000000     0          
T        Si     0.046550000000     0.019750000000     0.070300000000     0          
T        Si     0.171475000000     0.049300000000     0.470400000000     0          
T        Si     0.203450000000     0.230250000000     0.070300000000     0          
T        Si     0.078525000000     0.200700000000     0.470400000000     0          
T        Si     0.078450000000     0.269750000000     0.320300000000     0          
T        Si     0.203525000000     0.299300000000     0.220400000000     0          
T        Si     0.076700000000     0.375000000000     0.182350000000     0          
T        Si     0.171550000000     0.480250000000     0.320300000000     0          
T        Si     0.046475000000     0.450700000000     0.220400000000     0          
T        Si     0.173300000000     0.375000000000     0.182350000000     0          
T        Si     0.078450000000     0.230250000000     0.179700000000     0          
T        Si     0.203525000000     0.200700000000     0.279600000000     0          
T        Si     0.076700000000     0.125000000000     0.317650000000     0          
T        Si     0.171550000000     0.019750000000     0.179700000000     0          
T        Si     0.046475000000     0.049300000000     0.279600000000     0          
T        Si     0.173300000000     0.125000000000     0.317650000000     0          
T        Si     0.171550000000     0.230250000000     0.179700000000     0          
T        Si     0.046475000000     0.200700000000     0.279600000000     0          
T        Si     0.078450000000     0.019750000000     0.179700000000     0          
T        Si     0.203525000000     0.049300000000     0.279600000000     0          
T        Si     0.171550000000     0.269750000000     0.320300000000     0          
T        Si     0.046475000000     0.299300000000     0.220400000000     0          
T        Si     0.078450000000     0.480250000000     0.320300000000     0          
T        Si     0.203525000000     0.450700000000     0.220400000000     0          
T        Si     0.203450000000     0.019750000000     0.570300000000     0          
T        Si     0.078525000000     0.049300000000     0.970400000000     0          
T        Si     0.201700000000     0.125000000000     0.932350000000     0          
T        Si     0.046550000000     0.230250000000     0.570300000000     0          
T        Si     0.171475000000     0.200700000000     0.970400000000     0          
T        Si     0.048300000000     0.125000000000     0.932350000000     0          
T        Si     0.203450000000     0.480250000000     0.929700000000     0          
T        Si     0.078525000000     0.450700000000     0.529600000000     0          
T        Si     0.201700000000     0.375000000000     0.567650000000     0          
T        Si     0.046550000000     0.269750000000     0.929700000000     0          
T        Si     0.171475000000     0.299300000000     0.529600000000     0          
T        Si     0.048300000000     0.375000000000     0.567650000000     0          
T        Si     0.046550000000     0.480250000000     0.929700000000     0          
T        Si     0.171475000000     0.450700000000     0.529600000000     0          
T        Si     0.203450000000     0.269750000000     0.929700000000     0          
T        Si     0.078525000000     0.299300000000     0.529600000000     0          
T        Si     0.046550000000     0.019750000000     0.570300000000     0          
T        Si     0.171475000000     0.049300000000     0.970400000000     0          
T        Si     0.203450000000     0.230250000000     0.570300000000     0          
T        Si     0.078525000000     0.200700000000     0.970400000000     0          
T        Si     0.078450000000     0.269750000000     0.820300000000     0          
T        Si     0.203525000000     0.299300000000     0.720400000000     0          
T        Si     0.076700000000     0.375000000000     0.682350000000     0          
T        Si     0.171550000000     0.480250000000     0.820300000000     0          
T        Si     0.046475000000     0.450700000000     0.720400000000     0          
T        Si     0.173300000000     0.375000000000     0.682350000000     0          
T        Si     0.078450000000     0.230250000000     0.679700000000     0          
T        Si     0.203525000000     0.200700000000     0.779600000000     0          
T        Si     0.076700000000     0.125000000000     0.817650000000     0          
T        Si     0.171550000000     0.019750000000     0.679700000000     0          
T        Si     0.046475000000     0.049300000000     0.779600000000     0          
T        Si     0.173300000000     0.125000000000     0.817650000000     0          
T        Si     0.171550000000     0.230250000000     0.679700000000     0          
T        Si     0.046475000000     0.200700000000     0.779600000000     0          
T        Si     0.078450000000     0.019750000000     0.679700000000     0          
T        Si     0.203525000000     0.049300000000     0.779600000000     0          
T        Si     0.171550000000     0.269750000000     0.820300000000     0          
T        Si     0.046475000000     0.299300000000     0.720400000000     0          
T        Si     0.078450000000     0.480250000000     0.820300000000     0          
T        Si     0.203525000000     0.450700000000     0.720400000000     0          
T        Si     0.203450000000     0.519750000000     0.070300000000     0          
T        Si     0.078525000000     0.549300000000     0.470400000000     0          
T        Si     0.201700000000     0.625000000000     0.432350000000     0          
T        Si     0.046550000000     0.730250000000     0.070300000000     0          
T        Si     0.171475000000     0.700700000000     0.470400000000     0          
T        Si     0.048300000000     0.625000000000     0.432350000000     0          
T        Si     0.203450000000     0.980250000000     0.429700000000     0          
T        Si     0.078525000000     0.950700000000     0.029600000000     0          
T        Si     0.201700000000     0.875000000000     0.067650000000     0          
T        Si     0.046550000000     0.769750000000     0.429700000000     0          
T        Si     0.171475000000     0.799300000000     0.029600000000     0          
T        Si     0.048300000000     0.875000000000     0.067650000000     0          
T        Si     0.046550000000     0.980250000000     0.429700000000     0          
T        Si     0.171475000000     0.950700000000     0.029600000000     0          
T        Si     0.203450000000     0.769750000000     0.429700000000     0          
T        Si     0.078525000000     0.799300000000     0.029600000000     0          
T        Si     0.046550000000     0.519750000000     0.070300000000     0          
T        Si     0.171475000000     0.549300000000     0.470400000000     0          
T        Si     0.203450000000     0.730250000000     0.070300000000     0          
T        Si     0.078525000000     0.700700000000     0.470400000000     0          
T        Si     0.078450000000     0.769750000000     0.320300000000     0          
T        Si     0.203525000000     0.799300000000     0.220400000000     0          
T        Si     0.076700000000     0.875000000000     0.182350000000     0          
T        Si     0.171550000000     0.980250000000     0.320300000000     0          
T        Si     0.046475000000     0.950700000000     0.220400000000     0          
T        Si     0.173300000000     0.875000000000     0.182350000000     0          
T        Si     0.078450000000     0.730250000000     0.179700000000     0          
T        Si     0.203525000000     0.700700000000     0.279600000000     0          
T        Si     0.076700000000     0.625000000000     0.317650000000     0          
T        Si     0.171550000000     0.519750000000     0.179700000000     0          
T        Si     0.046475000000     0.549300000000     0.279600000000     0          
T        Si     0.173300000000     0.625000000000     0.317650000000     0          
T        Si     0.171550000000     0.730250000000     0.179700000000     0          
T        Si     0.046475000000     0.700700000000     0.279600000000     0          
T        Si     0.078450000000     0.519750000000     0.179700000000     0          
T        Si     0.203525000000     0.549300000000     0.279600000000     0          
T        Si     0.171550000000     0.769750000000     0.320300000000     0          
T        Si     0.046475000000     0.799300000000     0.220400000000     0          
T        Si     0.078450000000     0.980250000000     0.320300000000     0          
T        Si     0.203525000000     0.950700000000     0.220400000000     0          
T        Si     0.203450000000     0.519750000000     0.570300000000     0          
T        Si     0.078525000000     0.549300000000     0.970400000000     0          
T        Si     0.201700000000     0.625000000000     0.932350000000     0          
T        Si     0.046550000000     0.730250000000     0.570300000000     0          
T        Si     0.171475000000     0.700700000000     0.970400000000     0          
T        Si     0.048300000000     0.625000000000     0.932350000000     0          
T        Si     0.203450000000     0.980250000000     0.929700000000     0          
T        Si     0.078525000000     0.950700000000     0.529600000000     0          
T        Si     0.201700000000     0.875000000000     0.567650000000     0          
T        Si     0.046550000000     0.769750000000     0.929700000000     0          
T        Si     0.171475000000     0.799300000000     0.529600000000     0          
T        Si     0.048300000000     0.875000000000     0.567650000000     0          
T        Si     0.046550000000     0.980250000000     0.929700000000     0          
T        Si     0.171475000000     0.950700000000     0.529600000000     0          
T        Si     0.203450000000     0.769750000000     0.929700000000     0          
T        Si     0.078525000000     0.799300000000     0.529600000000     0          
T        Si     0.046550000000     0.519750000000     0.570300000000     0          
T        Si     0.171475000000     0.549300000000     0.970400000000     0          
T        Si     0.203450000000     0.730250000000     0.570300000000     0          
T        Si     0.078525000000     0.700700000000     0.970400000000     0          
T        Si     0.078450000000     0.769750000000     0.820300000000     0          
T        Si     0.203525000000     0.799300000000     0.720400000000     0          
T        Si     0.076700000000     0.875000000000     0.682350000000     0          
T        Si     0.171550000000     0.980250000000     0.820300000000     0          
T        Si     0.046475000000     0.950700000000     0.720400000000     0          
T        Si     0.173300000000     0.875000000000     0.682350000000     0          
T        Si     0.078450000000     0.730250000000     0.679700000000     0          
T        Si     0.203525000000     0.700700000000     0.779600000000     0          
T        Si     0.076700000000     0.625000000000     0.817650000000     0          
T        Si     0.171550000000     0.519750000000     0.679700000000     0          
T        Si     0.046475000000     0.549300000000     0.779600000000     0          
T        Si     0.173300000000     0.625000000000     0.817650000000     0          
T        Si     0.171550000000     0.730250000000     0.679700000000     0          
T        Si     0.046475000000     0.700700000000     0.779600000000     0          
T        Si     0.078450000000     0.519750000000     0.679700000000     0          
T        Si     0.203525000000     0.549300000000     0.779600000000     0          
T        Si     0.171550000000     0.769750000000     0.820300000000     0          
T        Si     0.046475000000     0.799300000000     0.720400000000     0          
T        Si     0.078450000000     0.980250000000     0.820300000000     0          
T        Si     0.203525000000     0.950700000000     0.720400000000     0          
T        Si     0.453450000000     0.019750000000     0.070300000000     0          
T        Si     0.328525000000     0.049300000000     0.470400000000     0          
T        Si     0.451700000000     0.125000000000     0.432350000000     0          
T        Si     0.296550000000     0.230250000000     0.070300000000     0          
T        Si     0.421475000000     0.200700000000     0.470400000000     0          
T        Si     0.298300000000     0.125000000000     0.432350000000     0          
T        Si     0.453450000000     0.480250000000     0.429700000000     0          
T        Si     0.328525000000     0.450700000000     0.029600000000     0          
T        Si     0.451700000000     0.375000000000     0.067650000000     0          
T        Si     0.296550000000     0.269750000000     0.429700000000     0          
T        Si     0.421475000000     0.299300000000     0.029600000000     0          
T        Si     0.298300000000     0.375000000000     0.067650000000     0          
T        Si     0.296550000000     0.480250000000     0.429700000000     0          
T        Si     0.421475000000     0.450700000000     0.029600000000     0          
T        Si     0.453450000000     0.269750000000     0.429700000000     0          
T        Si     0.328525000000     0.299300000000     0.029600000000     0          
T        Si     0.296550000000     0.019750000000     0.070300000000     0          
T        Si     0.421475000000     0.049300000000     0.470400000000     0          
T        Si     0.453450000000     0.230250000000     0.070300000000     0          
T        Si     0.328525000000     0.200700000000     0.470400000000     0          
T        Si     0.328450000000     0.269750000000     0.320300000000     0          
T        Si     0.453525000000     0.299300000000     0.220400000000     0          
T        Si     0.326700000000     0.375000000000     0.182350000000     0          
T        Si     0.421550000000     0.480250000000     0.320300000000     0          
T        Si     0.296475000000     0.450700000000     0.220400000000     0          
T        Si     0.423300000000     0.375000000000     0.182350000000     0          
T        Si     0.328450000000     0.230250000000     0.179700000000     0          
T        Si     0.453525000000     0.200700000000     0.279600000000     0          
T        Si     0.326700000000     0.125000000000     0.317650000000     0          
T        Si     0.421550000000     0.019750000000     0.179700000000     0          
T        Si     0.296475000000     0.049300000000     0.279600000000     0          
T        Si     0.423300000000     0.125000000000     0.317650000000     0          
T        Si     0.421550000000     0.230250000000     0.179700000000     0          
T        Si     0.296475000000     0.200700000000     0.279600000000     0          
T        Si     0.328450000000     0.019750000000     0.179700000000     0          
T        Si     0.453525000000     0.049300000000     0.279600000000     0          
T        Si     0.421550000000     0.269750000000     0.320300000000     0          
T        Si     0.296475000000     0.299300000000     0.220400000000     0          
T        Si     0.328450000000     0.480250000000     0.320300000000     0          
T        Si     0.453525000000     0.450700000000     0.220400000000     0          
T        Si     0.453450000000     0.019750000000     0.570300000000     0          
T        Si     0.328525000000     0.049300000000     0.970400000000     0          
T        Si     0.451700000000     0.125000000000     0.932350000000     0          
T        Si     0.296550000000     0.230250000000     0.570300000000     0          
T        Si     0.421475000000     0.200700000000     0.970400000000     0          
T        Si     0.298300000000     0.125000000000     0.932350000000     0          
T        Si     0.453450000000     0.480250000000     0.929700000000     0          
T        Si     0.328525000000     0.450700000000     0.529600000000     0          
T        Si     0.451700000000     0.375000000000     0.567650000000     0          
T        Si     0.296550000000     0.269750000000     0.929700000000     0          
T        Si     0.421475000000     0.299300000000     0.529600000000     0          
T        Si     0.298300000000     0.375000000000     0.567650000000     0          
T        Si     0.296550000000     0.480250000000     0.929700000000     0          
T        Si     0.421475000000     0.450700000000     0.529600000000     0          
T        Si     0.453450000000     0.269750000000     0.929700000000     0          
T        Si     0.328525000000     0.299300000000     0.529600000000     0          
T        Si     0.296550000000     0.019750000000     0.570300000000     0          
T        Si     0.421475000000     0.049300000000     0.970400000000     0          
T        Si     0.453450000000     0.230250000000     0.570300000000     0          
T        Si     0.328525000000     0.200700000000     0.970400000000     0          
T        Si     0.328450000000     0.269750000000     0.820300000000     0          
T        Si     0.453525000000     0.299300000000     0.720400000000     0          
T        Si     0.326700000000     0.375000000000     0.682350000000     0          
T        Si     0.421550000000     0.480250000000     0.820300000000     0          
T        Si     0.296475000000     0.450700000000     0.720400000000     0          
T        Si     0.423300000000     0.375000000000     0.682350000000     0          
T        Si     0.328450000000     0.230250000000     0.679700000000     0          
T        Si     0.453525000000     0.200700000000     0.779600000000     0          
T        Si     0.326700000000     0.125000000000     0.817650000000     0          
T        Si     0.421550000000     0.019750000000     0.679700000000     0          
T        Si     0.296475000000     0.049300000000     0.779600000000     0          
T        Si     0.423300000000     0.125000000000     0.817650000000     0          
T        Si     0.421550000000     0.230250000000     0.679700000000     0          
T        Si     0.296475000000     0.200700000000     0.779600000000     0          
T        Si     0.328450000000     0.019750000000     0.679700000000     0          
T        Si     0.453525000000     0.049300000000     0.779600000000     0          
T        Si     0.421550000000     0.269750000000     0.820300000000     0          
T        Si     0.296475000000     0.299300000000     0.720400000000     0          
T        Si     0.328450000000     0.480250000000     0.820300000000     0          
T        Si     0.453525000000     0.450700000000     0.720400000000     0          
T        Si     0.453450000000     0.519750000000     0.070300000000     0          
T        Si     0.328525000000     0.549300000000     0.470400000000     0          
T        Si     0.451700000000     0.625000000000     0.432350000000     0          
T        Si     0.296550000000     0.730250000000     0.070300000000     0          
T        Si     0.421475000000     0.700700000000     0.470400000000     0          
T        Si     0.298300000000     0.625000000000     0.432350000000     0          
T        Si     0.453450000000     0.980250000000     0.429700000000     0          
T        Si     0.328525000000     0.950700000000     0.029600000000     0          
T        Si     0.451700000000     0.875000000000     0.067650000000     0          
T        Si     0.296550000000     0.769750000000     0.429700000000     0          
T        Si     0.421475000000     0.799300000000     0.029600000000     0          
T        Si     0.298300000000     0.875000000000     0.067650000000     0          
T        Si     0.296550000000     0.980250000000     0.429700000000     0          
T        Si     0.421475000000     0.950700000000     0.029600000000     0          
T        Si     0.453450000000     0.769750000000     0.429700000000     0          
T        Si     0.328525000000     0.799300000000     0.029600000000     0          
T        Si     0.296550000000     0.519750000000     0.070300000000     0          
T        Si     0.421475000000     0.549300000000     0.470400000000     0          
T        Si     0.453450000000     0.730250000000     0.070300000000     0          
T        Si     0.328525000000     0.700700000000     0.470400000000     0          
T        Si     0.328450000000     0.769750000000     0.320300000000     0          
T        Si     0.453525000000     0.799300000000     0.220400000000     0          
T        Si     0.326700000000     0.875000000000     0.182350000000     0          
T        Si     0.421550000000     0.980250000000     0.320300000000     0          
T        Si     0.296475000000     0.950700000000     0.220400000000     0          
T        Si     0.423300000000     0.875000000000     0.182350000000     0          
T        Si     0.328450000000     0.730250000000     0.179700000000     0          
T        Si     0.453525000000     0.700700000000     0.279600000000     0          
T        Si     0.326700000000     0.625000000000     0.317650000000     0          
T        Si     0.421550000000     0.519750000000     0.179700000000     0          
T        Si     0.296475000000     0.549300000000     0.279600000000     0          
T        Si     0.423300000000     0.625000000000     0.317650000000     0          
T        Si     0.421550000000     0.730250000000     0.179700000000     0          
T        Si     0.296475000000     0.700700000000     0.279600000000     0          
T        Si     0.328450000000     0.519750000000     0.179700000000     0          
T        Si     0.453525000000     0.549300000000     0.279600000000     0          
T        Si     0.421550000000     0.769750000000     0.320300000000     0          
T        Si     0.296475000000     0.799300000000     0.220400000000     0          
T        Si     0.328450000000     0.980250000000     0.320300000000     0          
T        Si     0.453525000000     0.950700000000     0.220400000000     0          
T        Si     0.453450000000     0.519750000000     0.570300000000     0          
T        Si     0.328525000000     0.549300000000     0.970400000000     0          
T        Si     0.451700000000     0.625000000000     0.932350000000     0          
T        Si     0.296550000000     0.730250000000     0.570300000000     0          
T        Si     0.421475000000     0.700700000000     0.970400000000     0          
T        Si     0.298300000000     0.625000000000     0.932350000000     0          
T        Si     0.453450000000     0.980250000000     0.929700000000     0          
T        Si     0.328525000000     0.950700000000     0.529600000000     0          
T        Si     0.451700000000     0.875000000000     0.567650000000     0          
T        Si     0.296550000000     0.769750000000     0.929700000000     0          
T        Si     0.421475000000     0.799300000000     0.529600000000     0          
T        Si     0.298300000000     0.875000000000     0.567650000000     0          
T        Si     0.296550000000     0.980250000000     0.929700000000     0          
T        Si     0.421475000000     0.950700000000     0.529600000000     0          
T        Si     0.453450000000     0.769750000000     0.929700000000     0          
T        Si     0.328525000000     0.799300000000     0.529600000000     0          
T        Si     0.296550000000     0.519750000000     0.570300000000     0          
T        Si     0.421475000000     0.549300000000     0.970400000000     0          
T        Si     0.453450000000     0.730250000000     0.570300000000     0          
T        Si     0.328525000000     0.700700000000     0.970400000000     0          
T        Si     0.328450000000     0.769750000000     0.820300000000     0          
T        Si     0.453525000000     0.799300000000     0.720400000000     0          
T        Si     0.326700000000     0.875000000000     0.682350000000     0          
T        Si     0.421550000000     0.980250000000     0.820300000000     0          
T        Si     0.296475000000     0.950700000000     0.720400000000     0          
T        Si     0.423300000000     0.875000000000     0.682350000000     0          
T        Si     0.328450000000     0.730250000000     0.679700000000     0          
T        Si     0.453525000000     0.700700000000     0.779600000000     0          
T        Si     0.326700000000     0.625000000000     0.817650000000     0          
T        Si     0.421550000000     0.519750000000     0.679700000000     0          
T        Si     0.296475000000     0.549300000000     0.779600000000     0          
T        Si     0.423300000000     0.625000000000     0.817650000000     0          
T        Si     0.421550000000     0.730250000000     0.679700000000     0          
T        Si     0.296475000000     0.700700000000     0.779600000000     0          
T        Si     0.328450000000     0.519750000000     0.679700000000     0          
T        Si     0.453525000000     0.549300000000     0.779600000000     0          
T        Si     0.421550000000     0.769750000000     0.820300000000     0          
T        Si     0.296475000000     0.799300000000     0.720400000000     0          
T        Si     0.328450000000     0.980250000000     0.820300000000     0          
T        Si     0.453525000000     0.950700000000     0.720400000000     0          
T        Si     0.703450000000     0.019750000000     0.070300000000     0          
T        Si     0.578525000000     0.049300000000     0.470400000000     0          
T        Si     0.701700000000     0.125000000000     0.432350000000     0          
T        Si     0.546550000000     0.230250000000     0.070300000000     0          
T        Si     0.671475000000     0.200700000000     0.470400000000     0          
T        Si     0.548300000000     0.125000000000     0.432350000000     0          
T        Si     0.703450000000     0.480250000000     0.429700000000     0          
T        Si     0.578525000000     0.450700000000     0.029600000000     0          
T        Si     0.701700000000     0.375000000000     0.067650000000     0          
T        Si     0.546550000000     0.269750000000     0.429700000000     0          
T        Si     0.671475000000     0.299300000000     0.029600000000     0          
T        Si     0.548300000000     0.375000000000     0.067650000000     0          
T        Si     0.546550000000     0.480250000000     0.429700000000     0          
T        Si     0.671475000000     0.450700000000     0.029600000000     0          
T        Si     0.703450000000     0.269750000000     0.429700000000     0          
T        Si     0.578525000000     0.299300000000     0.029600000000     0          
T        Si     0.546550000000     0.019750000000     0.070300000000     0          
T        Si     0.671475000000     0.049300000000     0.470400000000     0          
T        Si     0.703450000000     0.230250000000     0.070300000000     0          
T        Si     0.578525000000     0.200700000000     0.470400000000     0          
T        Si     0.578450000000     0.269750000000     0.320300000000     0          
T        Si     0.703525000000     0.299300000000     0.220400000000     0          
T        Si     0.576700000000     0.375000000000     0.182350000000     0          
T        Si     0.671550000000     0.480250000000     0.320300000000     0          
T        Si     0.546475000000     0.450700000000     0.220400000000     0          
T        Si     0.673300000000     0.375000000000     0.182350000000     0          
T        Si     0.578450000000     0.230250000000     0.179700000000     0          
T        Si     0.703525000000     0.200700000000     0.279600000000     0          
T        Si     0.576700000000     0.125000000000     0.317650000000     0          
T        Si     0.671550000000     0.019750000000     0.179700000000     0          
T        Si     0.546475000000     0.049300000000     0.279600000000     0          
T        Si     0.673300000000     0.125000000000     0.317650000000     0          
T        Si     0.671550000000     0.230250000000     0.179700000000     0          
T        Si     0.546475000000     0.200700000000     0.279600000000     0          
T        Si     0.578450000000     0.019750000000     0.179700000000     0          
T        Si     0.703525000000     0.049300000000     0.279600000000     0          
T        Si     0.671550000000     0.269750000000     0.320300000000     0          
T        Si     0.546475000000     0.299300000000     0.220400000000     0          
T        Si     0.578450000000     0.480250000000     0.320300000000     0          
T        Si     0.703525000000     0.450700000000     0.220400000000     0          
T        Si     0.703450000000     0.019750000000     0.570300000000     0          
T        Si     0.578525000000     0.049300000000     0.970400000000     0          
T        Si     0.701700000000     0.125000000000     0.932350000000     0          
T        Si     0.546550000000     0.230250000000     0.570300000000     0          
T        Si     0.671475000000     0.200700000000     0.970400000000     0          
T        Si     0.548300000000     0.125000000000     0.932350000000     0          
T        Si     0.703450000000     0.480250000000     0.929700000000     0          
T        Si     0.578525000000     0.450700000000     0.529600000000     0          
T        Si     0.701700000000     0.375000000000     0.567650000000     0          
T        Si     0.546550000000     0.269750000000     0.929700000000     0          
T        Si     0.671475000000     0.299300000000     0.529600000000     0          
T        Si     0.548300000000     0.375000000000     0.567650000000     0          
T        Si     0.546550000000     0.480250000000     0.929700000000     0          
T        Si     0.671475000000     0.450700000000     0.529600000000     0          
T        Si     0.703450000000     0.269750000000     0.929700000000     0          
T        Si     0.578525000000     0.299300000000     0.529600000000     0          
T        Si     0.546550000000     0.019750000000     0.570300000000     0          
T        Si     0.671475000000     0.049300000000     0.970400000000     0          
T        Si     0.703450000000     0.230250000000     0.570300000000     0          
T        Si     0.578525000000     0.200700000000     0.970400000000     0          
T        Si     0.578450000000     0.269750000000     0.820300000000     0          
T        Si     0.703525000000     0.299300000000     0.720400000000     0          
T        Si     0.576700000000     0.375000000000     0.682350000000     0          
T        Si     0.671550000000     0.480250000000     0.820300000000     0          
T        Si     0.546475000000     0.450700000000     0.720400000000     0          
T        Si     0.673300000000     0.375000000000     0.682350000000     0          
T        Si     0.578450000000     0.230250000000     0.679700000000     0          
T        Si     0.703525000000     0.200700000000     0.779600000000     0          
T        Si     0.576700000000     0.125000000000     0.817650000000     0          
T        Si     0.671550000000     0.019750000000     0.679700000000     0          
T        Si     0.546475000000     0.049300000000     0.779600000000     0          
T        Si     0.673300000000     0.125000000000     0.817650000000     0          
T        Si     0.671550000000     0.230250000000     0.679700000000     0          
T        Si     0.546475000000     0.200700000000     0.779600000000     0          
T        Si     0.578450000000     0.019750000000     0.679700000000     0          
T        Si     0.703525000000     0.049300000000     0.779600000000     0          
T        Si     0.671550000000     0.269750000000     0.820300000000     0          
T        Si     0.546475000000     0.299300000000     0.720400000000     0          
T        Si     0.578450000000     0.480250000000     0.820300000000     0          
T        Si     0.703525000000     0.450700000000     0.720400000000     0          
T        Si     0.703450000000     0.519750000000     0.070300000000     0          
T        Si     0.578525000000     0.549300000000     0.470400000000     0          
T        Si     0.701700000000     0.625000000000     0.432350000000     0          
T        Si     0.546550000000     0.730250000000     0.070300000000     0          
T        Si     0.671475000000     0.700700000000     0.470400000000     0          
T        Si     0.548300000000     0.625000000000     0.432350000000     0          
T        Si     0.703450000000     0.980250000000     0.429700000000     0          
T        Si     0.578525000000     0.950700000000     0.029600000000     0          
T        Si     0.701700000000     0.875000000000     0.067650000000     0          
T        Si     0.546550000000     0.769750000000     0.429700000000     0          
T        Si     0.671475000000     0.799300000000     0.029600000000     0          
T        Si     0.548300000000     0.875000000000     0.067650000000     0          
T        Si     0.546550000000     0.980250000000     0.429700000000     0          
T        Si     0.671475000000     0.950700000000     0.029600000000     0          
T        Si     0.703450000000     0.769750000000     0.429700000000     0          
T        Si     0.578525000000     0.799300000000     0.029600000000     0          
T        Si     0.546550000000     0.519750000000     0.070300000000     0          
T        Si     0.671475000000     0.549300000000     0.470400000000     0          
T        Si     0.703450000000     0.730250000000     0.070300000000     0          
T        Si     0.578525000000     0.700700000000     0.470400000000     0          
T        Si     0.578450000000     0.769750000000     0.320300000000     0          
T        Si     0.703525000000     0.799300000000     0.220400000000     0          
T        Si     0.576700000000     0.875000000000     0.182350000000     0          
T        Si     0.671550000000     0.980250000000     0.320300000000     0          
T        Si     0.546475000000     0.950700000000     0.220400000000     0          
T        Si     0.673300000000     0.875000000000     0.182350000000     0          
T        Si     0.578450000000     0.730250000000     0.179700000000     0          
T        Si     0.703525000000     0.700700000000     0.279600000000     0          
T        Si     0.576700000000     0.625000000000     0.317650000000     0          
T        Si     0.671550000000     0.519750000000     0.179700000000     0          
T        Si     0.546475000000     0.549300000000     0.279600000000     0          
T        Si     0.673300000000     0.625000000000     0.317650000000     0          
T        Si     0.671550000000     0.730250000000     0.179700000000     0          
T        Si     0.546475000000     0.700700000000     0.279600000000     0          
T        Si     0.578450000000     0.519750000000     0.179700000000     0          
T        Si     0.703525000000     0.549300000000     0.279600000000     0          
T        Si     0.671550000000     0.769750000000     0.320300000000     0          
T        Si     0.546475000000     0.799300000000     0.220400000000     0          
T        Si     0.578450000000     0.980250000000     0.320300000000     0          
T        Si     0.703525000000     0.950700000000     0.220400000000     0          
T        Si     0.703450000000     0.519750000000     0.570300000000     0          
T        Si     0.578525000000     0.549300000000     0.970400000000     0          
T        Si     0.701700000000     0.625000000000     0.932350000000     0          
T        Si     0.546550000000     0.730250000000     0.570300000000     0          
T        Si     0.671475000000     0.700700000000     0.970400000000     0          
T        Si     0.548300000000     0.625000000000     0.932350000000     0          
T        Si     0.703450000000     0.980250000000     0.929700000000     0          
T        Si     0.578525000000     0.950700000000     0.529600000000     0          
T        Si     0.701700000000     0.875000000000     0.567650000000     0          
T        Si     0.546550000000     0.769750000000     0.929700000000     0          
T        Si     0.671475000000     0.799300000000     0.529600000000     0          
T        Si     0.548300000000     0.875000000000     0.567650000000     0          
T        Si     0.546550000000     0.980250000000     0.929700000000     0          
T        Si     0.671475000000     0.950700000000     0.529600000000     0          
T        Si     0.703450000000     0.769750000000     0.929700000000     0          
T        Si     0.578525000000     0.799300000000     0.529600000000     0          
T        Si     0.546550000000     0.519750000000     0.570300000000     0          
T        Si     0.671475000000     0.549300000000     0.970400000000     0          
T        Si     0.703450000000     0.730250000000     0.570300000000     0          
T        Si     0.578525000000     0.700700000000     0.970400000000     0          
T        Si     0.578450000000     0.769750000000     0.820300000000     0          
T        Si     0.703525000000     0.799300000000     0.720400000000     0          
T        Si     0.576700000000     0.875000000000     0.682350000000     0          
T        Si     0.671550000000     0.980250000000     0.820300000000     0          
T        Si     0.546475000000     0.950700000000     0.720400000000     0          
T        Si     0.673300000000     0.875000000000     0.682350000000     0          
T        Si     0.578450000000     0.730250000000     0.679700000000     0          
T        Si     0.703525000000     0.700700000000     0.779600000000     0          
T        Si     0.576700000000     0.625000000000     0.817650000000     0          
T        Si     0.671550000000     0.519750000000     0.679700000000     0          
T        Si     0.546475000000     0.549300000000     0.779600000000     0          
T        Si     0.673300000000     0.625000000000     0.817650000000     0          
T        Si     0.671550000000     0.730250000000     0.679700000000     0          
T        Si     0.546475000000     0.700700000000     0.779600000000     0          
T        Si     0.578450000000     0.519750000000     0.679700000000     0          
T        Si     0.703525000000     0.549300000000     0.779600000000     0          
T        Si     0.671550000000     0.769750000000     0.820300000000     0          
T        Si     0.546475000000     0.799300000000     0.720400000000     0          
T        Si     0.578450000000     0.980250000000     0.820300000000     0          
T        Si     0.703525000000     0.950700000000     0.720400000000     0          
T        Si     0.953450000000     0.019750000000     0.070300000000     0          
T        Si     0.828525000000     0.049300000000     0.470400000000     0          
T        Si     0.951700000000     0.125000000000     0.432350000000     0          
T        Si     0.796550000000     0.230250000000     0.070300000000     0          
T        Si     0.921475000000     0.200700000000     0.470400000000     0          
T        Si     0.798300000000     0.125000000000     0.432350000000     0          
T        Si     0.953450000000     0.480250000000     0.429700000000     0          
T        Si     0.828525000000     0.450700000000     0.029600000000     0          
T        Si     0.951700000000     0.375000000000     0.067650000000     0          
T        Si     0.796550000000     0.269750000000     0.429700000000     0          
T        Si     0.921475000000     0.299300000000     0.029600000000     0          
T        Si     0.798300000000     0.375000000000     0.067650000000     0          
T        Si     0.796550000000     0.480250000000     0.429700000000     0          
T        Si     0.921475000000     0.450700000000     0.029600000000     0          
T        Si     0.953450000000     0.269750000000     0.429700000000     0          
T        Si     0.828525000000     0.299300000000     0.029600000000     0          
T        Si     0.796550000000     0.019750000000     0.070300000000     0          
T        Si     0.921475000000     0.049300000000     0.470400000000     0          
T        Si     0.953450000000     0.230250000000     0.070300000000     0          
T        Si     0.828525000000     0.200700000000     0.470400000000     0          
T        Si     0.828450000000     0.269750000000     0.320300000000     0          
T        Si     0.953525000000     0.299300000000     0.220400000000     0          
T        Si     0.826700000000     0.375000000000     0.182350000000     0          
T        Si     0.921550000000     0.480250000000     0.320300000000     0          
T        Si     0.796475000000     0.450700000000     0.220400000000     0          
T        Si     0.923300000000     0.375000000000     0.182350000000     0          
T        Si     0.828450000000     0.230250000000     0.179700000000     0          
T        Si     0.953525000000     0.200700000000     0.279600000000     0          
T        Si     0.826700000000     0.125000000000     0.317650000000     0          
T        Si     0.921550000000     0.019750000000     0.179700000000     0          
T        Si     0.796475000000     0.049300000000     0.279600000000     0          
T        Si     0.923300000000     0.125000000000     0.317650000000     0          
T        Si     0.921550000000     0.230250000000     0.179700000000     0          
T        Si     0.796475000000     0.200700000000     0.279600000000     0          
T        Si     0.828450000000     0.019750000000     0.179700000000     0          
T        Si     0.953525000000     0.049300000000     0.279600000000     0          
T        Si     0.921550000000     0.269750000000     0.320300000000     0          
T        Si     0.796475000000     0.299300000000     0.220400000000     0          
T        Si     0.828450000000     0.480250000000     0.320300000000     0          
T        Si     0.953525000000     0.450700000000     0.220400000000     0          
T        Si     0.953450000000     0.019750000000     0.570300000000     0          
T        Si     0.828525000000     0.049300000000     0.970400000000     0          
T        Si     0.951700000000     0.125000000000     0.932350000000     0          
T        Si     0.796550000000     0.230250000000     0.570300000000     0          
T        Si     0.921475000000     0.200700000000     0.970400000000     0          
T        Si     0.798300000000     0.125000000000     0.932350000000     0          
T        Si     0.953450000000     0.480250000000     0.929700000000     0          
T        Si     0.828525000000     0.450700000000     0.529600000000     0          
T        Si     0.951700000000     0.375000000000     0.567650000000     0          
T        Si     0.796550000000     0.269750000000     0.929700000000     0          
T        Si     0.921475000000     0.299300000000     0.529600000000     0          
T        Si     0.798300000000     0.375000000000     0.567650000000     0          
T        Si     0.796550000000     0.480250000000     0.929700000000     0          
T        Si     0.921475000000     0.450700000000     0.529600000000     0          
T        Si     0.953450000000     0.269750000000     0.929700000000     0          
T        Si     0.828525000000     0.299300000000     0.529600000000     0          
T        Si     0.796550000000     0.019750000000     0.570300000000     0          
T        Si     0.921475000000     0.049300000000     0.970400000000     0          
T        Si     0.953450000000     0.230250000000     0.570300000000     0          
T        Si     0.828525000000     0.200700000000     0.970400000000     0          
T        Si     0.828450000000     0.269750000000     0.820300000000     0          
T        Si     0.953525000000     0.299300000000     0.720400000000     0          
T        Si     0.826700000000     0.375000000000     0.682350000000     0          
T        Si     0.921550000000     0.480250000000     0.820300000000     0          
T        Si     0.796475000000     0.450700000000     0.720400000000     0          
T        Si     0.923300000000     0.375000000000     0.682350000000     0          
T        Si     0.828450000000     0.230250000000     0.679700000000     0          
T        Si     0.953525000000     0.200700000000     0.779600000000     0          
T        Si     0.826700000000     0.125000000000     0.817650000000     0          
T        Si     0.921550000000     0.019750000000     0.679700000000     0          
T        Si     0.796475000000     0.049300000000     0.779600000000     0          
T        Si     0.923300000000     0.125000000000     0.817650000000     0          
T        Si     0.921550000000     0.230250000000     0.679700000000     0          
T        Si     0.796475000000     0.200700000000     0.779600000000     0          
T        Si     0.828450000000     0.019750000000     0.679700000000     0          
T        Si     0.953525000000     0.049300000000     0.779600000000     0          
T        Si     0.921550000000     0.269750000000     0.820300000000     0          
T        Si     0.796475000000     0.299300000000     0.720400000000     0          
T        Si     0.828450000000     0.480250000000     0.820300000000     0          
T        Si     0.953525000000     0.450700000000     0.720400000000     0          
T        Si     0.953450000000     0.519750000000     0.070300000000     0          
T        Si     0.828525000000     0.549300000000     0.470400000000     0          
T        Si     0.951700000000     0.625000000000     0.432350000000     0          
T        Si     0.796550000000     0.730250000000     0.070300000000     0          
T        Si     0.921475000000     0.700700000000     0.470400000000     0          
T        Si     0.798300000000     0.625000000000     0.432350000000     0          
T        Si     0.953450000000     0.980250000000     0.429700000000     0          
T        Si     0.828525000000     0.950700000000     0.029600000000     0          
T        Si     0.951700000000     0.875000000000     0.067650000000     0          
T        Si     0.796550000000     0.769750000000     0.429700000000     0          
T        Si     0.921475000000     0.799300000000     0.029600000000     0          
T        Si     0.798300000000     0.875000000000     0.067650000000     0          
T        Si     0.796550000000     0.980250000000     0.429700000000     0          
T        Si     0.921475000000     0.950700000000     0.029600000000     0          
T        Si     0.953450000000     0.769750000000     0.429700000000     0          
T        Si     0.828525000000     0.799300000000     0.029600000000     0          
T        Si     0.796550000000     0.519750000000     0.070300000000     0          
T        Si     0.921475000000     0.549300000000     0.470400000000     0          
T        Si     0.953450000000     0.730250000000     0.070300000000     0          
T        Si     0.828525000000     0.700700000000     0.470400000000     0          
T        Si     0.828450000000     0.769750000000     0.320300000000     0          
T        Si     0.953525000000     0.799300000000     0.220400000000     0          
T        Si     0.826700000000     0.875000000000     0.182350000000     0          
T        Si     0.921550000000     0.980250000000     0.320300000000     0          
T        Si     0.796475000000     0.950700000000     0.220400000000     0          
T        Si     0.923300000000     0.875000000000     0.182350000000     0          
T        Si     0.828450000000     0.730250000000     0.179700000000     0          
T        Si     0.953525000000     0.700700000000     0.279600000000     0          
T        Si     0.826700000000     0.625000000000     0.317650000000     0          
T        Si     0.921550000000     0.519750000000     0.179700000000     0          
T        Si     0.796475000000     0.549300000000     0.279600000000     0          
T        Si     0.923300000000     0.625000000000     0.317650000000     0          
T        Si     0.921550000000     0.730250000000     0.179700000000     0          
T        Si     0.796475000000     0.700700000000     0.279600000000     0          
T        Si     0.828450000000     0.519750000000     0.179700000000     0          
T        Si     0.953525000000     0.549300000000     0.279600000000     0          
T        Si     0.921550000000     0.769750000000     0.320300000000     0          
T        Si     0.796475000000     0.799300000000     0.220400000000     0          
T        Si     0.828450000000     0.980250000000     0.320300000000     0          
T        Si     0.953525000000     0.950700000000     0.220400000000     0          
T        Si     0.953450000000     0.519750000000     0.570300000000     0          
T        Si     0.828525000000     0.549300000000     0.970400000000     0          
T        Si     0.951700000000     0.625000000000     0.932350000000     0          
T        Si     0.796550000000     0.730250000000     0.570300000000     0          
T        Si     0.921475000000     0.700700000000     0.970400000000     0          
T        Si     0.798300000000     0.625000000000     0.932350000000     0          
T        Si     0.953450000000     0.980250000000     0.929700000000     0          
T        Si     0.828525000000     0.950700000000     0.529600000000     0          
T        Si     0.951700000000     0.875000000000     0.567650000000     0          
T        Si     0.796550000000     0.769750000000     0.929700000000     0          
T        Si     0.921475000000     0.799300000000     0.529600000000     0          
T        Si     0.798300000000     0.875000000000     0.567650000000     0          
T        Si     0.796550000000     0.980250000000     0.929700000000     0          
T        Si     0.921475000000     0.950700000000     0.529600000000     0          
T        Si     0.953450000000     0.769750000000     0.929700000000     0          
T        Si     0.828525000000     0.799300000000     0.529600000000     0          
T        Si     0.796550000000     0.519750000000     0.570300000000     0          
T        Si     0.921475000000     0.549300000000     0.970400000000     0          
T        Si     0.953450000000     0.730250000000     0.570300000000     0          
T        Si     0.828525000000     0.700700000000     0.970400000000     0          
T        Si     0.828450000000     0.769750000000     0.820300000000     0          
T        Si     0.953525000000     0.799300000000     0.720400000000     0          
T        Si     0.826700000000     0.875000000000     0.682350000000     0          
T        Si     0.921550000000     0.980250000000     0.820300000000     0          
T        Si     0.796475000000     0.950700000000     0.720400000000     0          
T        Si     0.923300000000     0.875000000000     0.682350000000     0          
T        Si     0.828450000000     0.730250000000     0.679700000000     0          
T        Si     0.953525000000     0.700700000000     0.779600000000     0          
T        Si     0.826700000000     0.625000000000     0.817650000000     0          
T        Si     0.921550000000     0.519750000000     0.679700000000     0          
T        Si     0.796475000000     0.549300000000     0.779600000000     0          
T        Si     0.923300000000     0.625000000000     0.817650000000     0          
T        Si     0.921550000000     0.730250000000     0.679700000000     0          
T        Si     0.796475000000     0.700700000000     0.779600000000     0          
T        Si     0.828450000000     0.519750000000     0.679700000000     0          
T        Si     0.953525000000     0.549300000000     0.779600000000     0          
T        Si     0.921550000000     0.769750000000     0.820300000000     0          
T        Si     0.796475000000     0.799300000000     0.720400000000     0          
T        Si     0.828450000000     0.980250000000     0.820300000000     0          
T        Si     0.953525000000     0.950700000000     0.720400000000     0          
O        O      0.198900000000     0.477350000000     0.062250000000     0          
O        O      0.187500000000     0.030450000000     0.125000000000     0          
O        O      0.177250000000     0.040400000000     0.028800000000     0          
O        O      0.000000000000     0.030950000000     0.064850000000     0          
O        O      0.065375000000     0.089950000000     0.459900000000     0          
O        O      0.125000000000     0.044000000000     0.455250000000     0          
O        O      0.187500000000     0.125000000000     0.375000000000     0          
O        O      0.000000000000     0.125000000000     0.435150000000     0          
O        O      0.051100000000     0.272650000000     0.062250000000     0          
O        O      0.062500000000     0.219550000000     0.125000000000     0          
O        O      0.072750000000     0.209600000000     0.028800000000     0          
O        O      0.000000000000     0.219050000000     0.064850000000     0          
O        O      0.184625000000     0.160050000000     0.459900000000     0          
O        O      0.125000000000     0.206000000000     0.455250000000     0          
O        O      0.062500000000     0.125000000000     0.375000000000     0          
O        O      0.198900000000     0.022650000000     0.437750000000     0          
O        O      0.187500000000     0.469550000000     0.375000000000     0          
O        O      0.177250000000     0.459600000000     0.471200000000     0          
O        O      0.000000000000     0.469050000000     0.435150000000     0          
O        O      0.065375000000     0.410050000000     0.040100000000     0          
O        O      0.125000000000     0.456000000000     0.044750000000     0          
O        O      0.187500000000     0.375000000000     0.125000000000     0          
O        O      0.000000000000     0.375000000000     0.064850000000     0          
O        O      0.051100000000     0.227350000000     0.437750000000     0          
O        O      0.062500000000     0.280450000000     0.375000000000     0          
O        O      0.072750000000     0.290400000000     0.471200000000     0          
O        O      0.000000000000     0.280950000000     0.435150000000     0          
O        O      0.184625000000     0.339950000000     0.040100000000     0          
O        O      0.125000000000     0.294000000000     0.044750000000     0          
O        O      0.062500000000     0.375000000000     0.125000000000     0          
O        O      0.051100000000     0.022650000000     0.437750000000     0          
O        O      0.062500000000     0.469550000000     0.375000000000     0          
O        O      0.072750000000     0.459600000000     0.471200000000     0          
O        O      0.184625000000     0.410050000000     0.040100000000     0          
O        O      0.198900000000     0.227350000000     0.437750000000     0          
O        O      0.187500000000     0.280450000000     0.375000000000     0          
O        O      0.177250000000     0.290400000000     0.471200000000     0          
O        O      0.065375000000     0.339950000000     0.040100000000     0          
O        O      0.051100000000     0.477350000000     0.062250000000     0          
O        O      0.062500000000     0.030450000000     0.125000000000     0          
O        O      0.072750000000     0.040400000000     0.028800000000     0          
O        O      0.184625000000     0.089950000000     0.459900000000     0          
O        O      0.198900000000     0.272650000000     0.062250000000     0          
O        O      0.187500000000     0.219550000000     0.125000000000     0          
O        O      0.177250000000     0.209600000000     0.028800000000     0          
O        O      0.065375000000     0.160050000000     0.459900000000     0          
O        O      0.073900000000     0.227350000000     0.312250000000     0          
O        O      0.052250000000     0.290400000000     0.278800000000     0          
O        O      0.125000000000     0.280950000000     0.314850000000     0          
O        O      0.190375000000     0.339950000000     0.209900000000     0          
O        O      0.000000000000     0.294000000000     0.205250000000     0          
O        O      0.125000000000     0.375000000000     0.185150000000     0          
O        O      0.176100000000     0.022650000000     0.312250000000     0          
O        O      0.197750000000     0.459600000000     0.278800000000     0          
O        O      0.125000000000     0.469050000000     0.314850000000     0          
O        O      0.059625000000     0.410050000000     0.209900000000     0          
O        O      0.000000000000     0.456000000000     0.205250000000     0          
O        O      0.073900000000     0.272650000000     0.187750000000     0          
O        O      0.052250000000     0.209600000000     0.221200000000     0          
O        O      0.125000000000     0.219050000000     0.185150000000     0          
O        O      0.190375000000     0.160050000000     0.290100000000     0          
O        O      0.000000000000     0.206000000000     0.294750000000     0          
O        O      0.125000000000     0.125000000000     0.314850000000     0          
O        O      0.176100000000     0.477350000000     0.187750000000     0          
O        O      0.197750000000     0.040400000000     0.221200000000     0          
O        O      0.125000000000     0.030950000000     0.185150000000     0          
O        O      0.059625000000     0.089950000000     0.290100000000     0          
O        O      0.000000000000     0.044000000000     0.294750000000     0          
O        O      0.176100000000     0.272650000000     0.187750000000     0          
O        O      0.197750000000     0.209600000000     0.221200000000     0          
O        O      0.059625000000     0.160050000000     0.290100000000     0          
O        O      0.073900000000     0.477350000000     0.187750000000     0          
O        O      0.052250000000     0.040400000000     0.221200000000     0          
O        O      0.190375000000     0.089950000000     0.290100000000     0          
O        O      0.176100000000     0.227350000000     0.312250000000     0          
O        O      0.197750000000     0.290400000000     0.278800000000     0          
O        O      0.059625000000     0.339950000000     0.209900000000     0          
O        O      0.073900000000     0.022650000000     0.312250000000     0          
O        O      0.052250000000     0.459600000000     0.278800000000     0          
O        O      0.190375000000     0.410050000000     0.209900000000     0          
O        O      0.198900000000     0.477350000000     0.562250000000     0          
O        O      0.187500000000     0.030450000000     0.625000000000     0          
O        O      0.177250000000     0.040400000000     0.528800000000     0          
O        O      0.000000000000     0.030950000000     0.564850000000     0          
O        O      0.065375000000     0.089950000000     0.959900000000     0          
O        O      0.125000000000     0.044000000000     0.955250000000     0          
O        O      0.187500000000     0.125000000000     0.875000000000     0          
O        O      0.000000000000     0.125000000000     0.935150000000     0          
O        O      0.051100000000     0.272650000000     0.562250000000     0          
O        O      0.062500000000     0.219550000000     0.625000000000     0          
O        O      0.072750000000     0.209600000000     0.528800000000     0          
O        O      0.000000000000     0.219050000000     0.564850000000     0          
O        O      0.184625000000     0.160050000000     0.959900000000     0          
O        O      0.125000000000     0.206000000000     0.955250000000     0          
O        O      0.062500000000     0.125000000000     0.875000000000     0          
O        O      0.198900000000     0.022650000000     0.937750000000     0          
O        O      0.187500000000     0.469550000000     0.875000000000     0          
O        O      0.177250000000     0.459600000000     0.971200000000     0          
O        O      0.000000000000     0.469050000000     0.935150000000     0          
O        O      0.065375000000     0.410050000000     0.540100000000     0          
O        O      0.125000000000     0.456000000000     0.544750000000     0          
O        O      0.187500000000     0.375000000000     0.625000000000     0          
O        O      0.000000000000     0.375000000000     0.564850000000     0          
O        O      0.051100000000     0.227350000000     0.937750000000     0          
O        O      0.062500000000     0.280450000000     0.875000000000     0          
O        O      0.072750000000     0.290400000000     0.971200000000     0          
O        O      0.000000000000     0.280950000000     0.935150000000     0          
O        O      0.184625000000     0.339950000000     0.540100000000     0          
O        O      0.125000000000     0.294000000000     0.544750000000     0          
O        O      0.062500000000     0.375000000000     0.625000000000     0          
O        O      0.051100000000     0.022650000000     0.937750000000     0          
O        O      0.062500000000     0.469550000000     0.875000000000     0          
O        O      0.072750000000     0.459600000000     0.971200000000     0          
O        O      0.184625000000     0.410050000000     0.540100000000     0          
O        O      0.198900000000     0.227350000000     0.937750000000     0          
O        O      0.187500000000     0.280450000000     0.875000000000     0          
O        O      0.177250000000     0.290400000000     0.971200000000     0          
O        O      0.065375000000     0.339950000000     0.540100000000     0          
O        O      0.051100000000     0.477350000000     0.562250000000     0          
O        O      0.062500000000     0.030450000000     0.625000000000     0          
O        O      0.072750000000     0.040400000000     0.528800000000     0          
O        O      0.184625000000     0.089950000000     0.959900000000     0          
O        O      0.198900000000     0.272650000000     0.562250000000     0          
O        O      0.187500000000     0.219550000000     0.625000000000     0          
O        O      0.177250000000     0.209600000000     0.528800000000     0          
O        O      0.065375000000     0.160050000000     0.959900000000     0          
O        O      0.073900000000     0.227350000000     0.812250000000     0          
O        O      0.052250000000     0.290400000000     0.778800000000     0          
O        O      0.125000000000     0.280950000000     0.814850000000     0          
O        O      0.190375000000     0.339950000000     0.709900000000     0          
O        O      0.000000000000     0.294000000000     0.705250000000     0          
O        O      0.125000000000     0.375000000000     0.685150000000     0          
O        O      0.176100000000     0.022650000000     0.812250000000     0          
O        O      0.197750000000     0.459600000000     0.778800000000     0          
O        O      0.125000000000     0.469050000000     0.814850000000     0          
O        O      0.059625000000     0.410050000000     0.709900000000     0          
O        O      0.000000000000     0.456000000000     0.705250000000     0          
O        O      0.073900000000     0.272650000000     0.687750000000     0          
O        O      0.052250000000     0.209600000000     0.721200000000     0          
O        O      0.125000000000     0.219050000000     0.685150000000     0          
O        O      0.190375000000     0.160050000000     0.790100000000     0          
O        O      0.000000000000     0.206000000000     0.794750000000     0          
O        O      0.125000000000     0.125000000000     0.814850000000     0          
O        O      0.176100000000     0.477350000000     0.687750000000     0          
O        O      0.197750000000     0.040400000000     0.721200000000     0          
O        O      0.125000000000     0.030950000000     0.685150000000     0          
O        O      0.059625000000     0.089950000000     0.790100000000     0          
O        O      0.000000000000     0.044000000000     0.794750000000     0          
O        O      0.176100000000     0.272650000000     0.687750000000     0          
O        O      0.197750000000     0.209600000000     0.721200000000     0          
O        O      0.059625000000     0.160050000000     0.790100000000     0          
O        O      0.073900000000     0.477350000000     0.687750000000     0          
O        O      0.052250000000     0.040400000000     0.721200000000     0          
O        O      0.190375000000     0.089950000000     0.790100000000     0          
O        O      0.176100000000     0.227350000000     0.812250000000     0          
O        O      0.197750000000     0.290400000000     0.778800000000     0          
O        O      0.059625000000     0.339950000000     0.709900000000     0          
O        O      0.073900000000     0.022650000000     0.812250000000     0          
O        O      0.052250000000     0.459600000000     0.778800000000     0          
O        O      0.190375000000     0.410050000000     0.709900000000     0          
O        O      0.198900000000     0.977350000000     0.062250000000     0          
O        O      0.187500000000     0.530450000000     0.125000000000     0          
O        O      0.177250000000     0.540400000000     0.028800000000     0          
O        O      0.000000000000     0.530950000000     0.064850000000     0          
O        O      0.065375000000     0.589950000000     0.459900000000     0          
O        O      0.125000000000     0.544000000000     0.455250000000     0          
O        O      0.187500000000     0.625000000000     0.375000000000     0          
O        O      0.000000000000     0.625000000000     0.435150000000     0          
O        O      0.051100000000     0.772650000000     0.062250000000     0          
O        O      0.062500000000     0.719550000000     0.125000000000     0          
O        O      0.072750000000     0.709600000000     0.028800000000     0          
O        O      0.000000000000     0.719050000000     0.064850000000     0          
O        O      0.184625000000     0.660050000000     0.459900000000     0          
O        O      0.125000000000     0.706000000000     0.455250000000     0          
O        O      0.062500000000     0.625000000000     0.375000000000     0          
O        O      0.198900000000     0.522650000000     0.437750000000     0          
O        O      0.187500000000     0.969550000000     0.375000000000     0          
O        O      0.177250000000     0.959600000000     0.471200000000     0          
O        O      0.000000000000     0.969050000000     0.435150000000     0          
O        O      0.065375000000     0.910050000000     0.040100000000     0          
O        O      0.125000000000     0.956000000000     0.044750000000     0          
O        O      0.187500000000     0.875000000000     0.125000000000     0          
O        O      0.000000000000     0.875000000000     0.064850000000     0          
O        O      0.051100000000     0.727350000000     0.437750000000     0          
O        O      0.062500000000     0.780450000000     0.375000000000     0          
O        O      0.072750000000     0.790400000000     0.471200000000     0          
O        O      0.000000000000     0.780950000000     0.435150000000     0          
O        O      0.184625000000     0.839950000000     0.040100000000     0          
O        O      0.125000000000     0.794000000000     0.044750000000     0          
O        O      0.062500000000     0.875000000000     0.125000000000     0          
O        O      0.051100000000     0.522650000000     0.437750000000     0          
O        O      0.062500000000     0.969550000000     0.375000000000     0          
O        O      0.072750000000     0.959600000000     0.471200000000     0          
O        O      0.184625000000     0.910050000000     0.040100000000     0          
O        O      0.198900000000     0.727350000000     0.437750000000     0          
O        O      0.187500000000     0.780450000000     0.375000000000     0          
O        O      0.177250000000     0.790400000000     0.471200000000     0          
O        O      0.065375000000     0.839950000000     0.040100000000     0          
O        O      0.051100000000     0.977350000000     0.062250000000     0          
O        O      0.062500000000     0.530450000000     0.125000000000     0          
O        O      0.072750000000     0.540400000000     0.028800000000     0          
O        O      0.184625000000     0.589950000000     0.459900000000     0          
O        O      0.198900000000     0.772650000000     0.062250000000     0          
O        O      0.187500000000     0.719550000000     0.125000000000     0          
O        O      0.177250000000     0.709600000000     0.028800000000     0          
O        O      0.065375000000     0.660050000000     0.459900000000     0          
O        O      0.073900000000     0.727350000000     0.312250000000     0          
O        O      0.052250000000     0.790400000000     0.278800000000     0          
O        O      0.125000000000     0.780950000000     0.314850000000     0          
O        O      0.190375000000     0.839950000000     0.209900000000     0          
O        O      0.000000000000     0.794000000000     0.205250000000     0          
O        O      0.125000000000     0.875000000000     0.185150000000     0          
O        O      0.176100000000     0.522650000000     0.312250000000     0          
O        O      0.197750000000     0.959600000000     0.278800000000     0          
O        O      0.125000000000     0.969050000000     0.314850000000     0          
O        O      0.059625000000     0.910050000000     0.209900000000     0          
O        O      0.000000000000     0.956000000000     0.205250000000     0          
O        O      0.073900000000     0.772650000000     0.187750000000     0          
O        O      0.052250000000     0.709600000000     0.221200000000     0          
O        O      0.125000000000     0.719050000000     0.185150000000     0          
O        O      0.190375000000     0.660050000000     0.290100000000     0          
O        O      0.000000000000     0.706000000000     0.294750000000     0          
O        O      0.125000000000     0.625000000000     0.314850000000     0          
O        O      0.176100000000     0.977350000000     0.187750000000     0          
O        O      0.197750000000     0.540400000000     0.221200000000     0          
O        O      0.125000000000     0.530950000000     0.185150000000     0          
O        O      0.059625000000     0.589950000000     0.290100000000     0          
O        O      0.000000000000     0.544000000000     0.294750000000     0          
O        O      0.176100000000     0.772650000000     0.187750000000     0          
O        O      0.197750000000     0.709600000000     0.221200000000     0          
O        O      0.059625000000     0.660050000000     0.290100000000     0          
O        O      0.073900000000     0.977350000000     0.187750000000     0          
O        O      0.052250000000     0.540400000000     0.221200000000     0          
O        O      0.190375000000     0.589950000000     0.290100000000     0          
O        O      0.176100000000     0.727350000000     0.312250000000     0          
O        O      0.197750000000     0.790400000000     0.278800000000     0          
O        O      0.059625000000     0.839950000000     0.209900000000     0          
O        O      0.073900000000     0.522650000000     0.312250000000     0          
O        O      0.052250000000     0.959600000000     0.278800000000     0          
O        O      0.190375000000     0.910050000000     0.209900000000     0          
O        O      0.198900000000     0.977350000000     0.562250000000     0          
O        O      0.187500000000     0.530450000000     0.625000000000     0          
O        O      0.177250000000     0.540400000000     0.528800000000     0          
O        O      0.000000000000     0.530950000000     0.564850000000     0          
O        O      0.065375000000     0.589950000000     0.959900000000     0          
O        O      0.125000000000     0.544000000000     0.955250000000     0          
O        O      0.187500000000     0.625000000000     0.875000000000     0          
O        O      0.000000000000     0.625000000000     0.935150000000     0          
O        O      0.051100000000     0.772650000000     0.562250000000     0          
O        O      0.062500000000     0.719550000000     0.625000000000     0          
O        O      0.072750000000     0.709600000000     0.528800000000     0          
O        O      0.000000000000     0.719050000000     0.564850000000     0          
O        O      0.184625000000     0.660050000000     0.959900000000     0          
O        O      0.125000000000     0.706000000000     0.955250000000     0          
O        O      0.062500000000     0.625000000000     0.875000000000     0          
O        O      0.198900000000     0.522650000000     0.937750000000     0          
O        O      0.187500000000     0.969550000000     0.875000000000     0          
O        O      0.177250000000     0.959600000000     0.971200000000     0          
O        O      0.000000000000     0.969050000000     0.935150000000     0          
O        O      0.065375000000     0.910050000000     0.540100000000     0          
O        O      0.125000000000     0.956000000000     0.544750000000     0          
O        O      0.187500000000     0.875000000000     0.625000000000     0          
O        O      0.000000000000     0.875000000000     0.564850000000     0          
O        O      0.051100000000     0.727350000000     0.937750000000     0          
O        O      0.062500000000     0.780450000000     0.875000000000     0          
O        O      0.072750000000     0.790400000000     0.971200000000     0          
O        O      0.000000000000     0.780950000000     0.935150000000     0          
O        O      0.184625000000     0.839950000000     0.540100000000     0          
O        O      0.125000000000     0.794000000000     0.544750000000     0          
O        O      0.062500000000     0.875000000000     0.625000000000     0          
O        O      0.051100000000     0.522650000000     0.937750000000     0          
O        O      0.062500000000     0.969550000000     0.875000000000     0          
O        O      0.072750000000     0.959600000000     0.971200000000     0          
O        O      0.184625000000     0.910050000000     0.540100000000     0          
O        O      0.198900000000     0.727350000000     0.937750000000     0          
O        O      0.187500000000     0.780450000000     0.875000000000     0          
O        O      0.177250000000     0.790400000000     0.971200000000     0          
O        O      0.065375000000     0.839950000000     0.540100000000     0          
O        O      0.051100000000     0.977350000000     0.562250000000     0          
O        O      0.062500000000     0.530450000000     0.625000000000     0          
O        O      0.072750000000     0.540400000000     0.528800000000     0          
O        O      0.184625000000     0.589950000000     0.959900000000     0          
O        O      0.198900000000     0.772650000000     0.562250000000     0          
O        O      0.187500000000     0.719550000000     0.625000000000     0          
O        O      0.177250000000     0.709600000000     0.528800000000     0          
O        O      0.065375000000     0.660050000000     0.959900000000     0          
O        O      0.073900000000     0.727350000000     0.812250000000     0          
O        O      0.052250000000     0.790400000000     0.778800000000     0          
O        O      0.125000000000     0.780950000000     0.814850000000     0          
O        O      0.190375000000     0.839950000000     0.709900000000     0          
O        O      0.000000000000     0.794000000000     0.705250000000     0          
O        O      0.125000000000     0.875000000000     0.685150000000     0          
O        O      0.176100000000     0.522650000000     0.812250000000     0          
O        O      0.197750000000     0.959600000000     0.778800000000     0          
O        O      0.125000000000     0.969050000000     0.814850000000     0          
O        O      0.059625000000     0.910050000000     0.709900000000     0          
O        O      0.000000000000     0.956000000000     0.705250000000     0          
O        O      0.073900000000     0.772650000000     0.687750000000     0          
O        O      0.052250000000     0.709600000000     0.721200000000     0          
O        O      0.125000000000     0.719050000000     0.685150000000     0          
O        O      0.190375000000     0.660050000000     0.790100000000     0          
O        O      0.000000000000     0.706000000000     0.794750000000     0          
O        O      0.125000000000     0.625000000000     0.814850000000     0          
O        O      0.176100000000     0.977350000000     0.687750000000     0          
O        O      0.197750000000     0.540400000000     0.721200000000     0          
O        O      0.125000000000     0.530950000000     0.685150000000     0          
O        O      0.059625000000     0.589950000000     0.790100000000     0          
O        O      0.000000000000     0.544000000000     0.794750000000     0          
O        O      0.176100000000     0.772650000000     0.687750000000     0          
O        O      0.197750000000     0.709600000000     0.721200000000     0          
O        O      0.059625000000     0.660050000000     0.790100000000     0          
O        O      0.073900000000     0.977350000000     0.687750000000     0          
O        O      0.052250000000     0.540400000000     0.721200000000     0          
O        O      0.190375000000     0.589950000000     0.790100000000     0          
O        O      0.176100000000     0.727350000000     0.812250000000     0          
O        O      0.197750000000     0.790400000000     0.778800000000     0          
O        O      0.059625000000     0.839950000000     0.709900000000     0          
O        O      0.073900000000     0.522650000000     0.812250000000     0          
O        O      0.052250000000     0.959600000000     0.778800000000     0          
O        O      0.190375000000     0.910050000000     0.709900000000     0          
O        O      0.448900000000     0.477350000000     0.062250000000     0          
O        O      0.437500000000     0.030450000000     0.125000000000     0          
O        O      0.427250000000     0.040400000000     0.028800000000     0          
O        O      0.250000000000     0.030950000000     0.064850000000     0          
O        O      0.315375000000     0.089950000000     0.459900000000     0          
O        O      0.375000000000     0.044000000000     0.455250000000     0          
O        O      0.437500000000     0.125000000000     0.375000000000     0          
O        O      0.250000000000     0.125000000000     0.435150000000     0          
O        O      0.301100000000     0.272650000000     0.062250000000     0          
O        O      0.312500000000     0.219550000000     0.125000000000     0          
O        O      0.322750000000     0.209600000000     0.028800000000     0          
O        O      0.250000000000     0.219050000000     0.064850000000     0          
O        O      0.434625000000     0.160050000000     0.459900000000     0          
O        O      0.375000000000     0.206000000000     0.455250000000     0          
O        O      0.312500000000     0.125000000000     0.375000000000     0          
O        O      0.448900000000     0.022650000000     0.437750000000     0          
O        O      0.437500000000     0.469550000000     0.375000000000     0          
O        O      0.427250000000     0.459600000000     0.471200000000     0          
O        O      0.250000000000     0.469050000000     0.435150000000     0          
O        O      0.315375000000     0.410050000000     0.040100000000     0          
O        O      0.375000000000     0.456000000000     0.044750000000     0          
O        O      0.437500000000     0.375000000000     0.125000000000     0          
O        O      0.250000000000     0.375000000000     0.064850000000     0          
O        O      0.301100000000     0.227350000000     0.437750000000     0          
O        O      0.312500000000     0.280450000000     0.375000000000     0          
O        O      0.322750000000     0.290400000000     0.471200000000     0          
O        O      0.250000000000     0.280950000000     0.435150000000     0          
O        O      0.434625000000     0.339950000000     0.040100000000     0          
O        O      0.375000000000     0.294000000000     0.044750000000     0          
O        O      0.312500000000     0.375000000000     0.125000000000     0          
O        O      0.301100000000     0.022650000000     0.437750000000     0          
O        O      0.312500000000     0.469550000000     0.375000000000     0          
O        O      0.322750000000     0.459600000000     0.471200000000     0          
O        O      0.434625000000     0.410050000000     0.040100000000     0          
O        O      0.448900000000     0.227350000000     0.437750000000     0          
O        O      0.437500000000     0.280450000000     0.375000000000     0          
O        O      0.427250000000     0.290400000000     0.471200000000     0          
O        O      0.315375000000     0.339950000000     0.040100000000     0          
O        O      0.301100000000     0.477350000000     0.062250000000     0          
O        O      0.312500000000     0.030450000000     0.125000000000     0          
O        O      0.322750000000     0.040400000000     0.028800000000     0          
O        O      0.434625000000     0.089950000000     0.459900000000     0          
O        O      0.448900000000     0.272650000000     0.062250000000     0          
O        O      0.437500000000     0.219550000000     0.125000000000     0          
O        O      0.427250000000     0.209600000000     0.028800000000     0          
O        O      0.315375000000     0.160050000000     0.459900000000     0          
O        O      0.323900000000     0.227350000000     0.312250000000     0          
O        O      0.302250000000     0.290400000000     0.278800000000     0          
O        O      0.375000000000     0.280950000000     0.314850000000     0          
O        O      0.440375000000     0.339950000000     0.209900000000     0          
O        O      0.250000000000     0.294000000000     0.205250000000     0          
O        O      0.375000000000     0.375000000000     0.185150000000     0          
O        O      0.426100000000     0.022650000000     0.312250000000     0          
O        O      0.447750000000     0.459600000000     0.278800000000     0          
O        O      0.375000000000     0.469050000000     0.314850000000     0          
O        O      0.309625000000     0.410050000000     0.209900000000     0          
O        O      0.250000000000     0.456000000000     0.205250000000     0          
O        O      0.323900000000     0.272650000000     0.187750000000     0          
O        O      0.302250000000     0.209600000000     0.221200000000     0          
O        O      0.375000000000     0.219050000000     0.185150000000     0          
O        O      0.440375000000     0.160050000000     0.290100000000     0          
O        O      0.250000000000     0.206000000000     0.294750000000     0          
O        O      0.375000000000     0.125000000000     0.314850000000     0          
O        O      0.426100000000     0.477350000000     0.187750000000     0          
O        O      0.447750000000     0.040400000000     0.221200000000     0          
O        O      0.375000000000     0.030950000000     0.185150000000     0          
O        O      0.309625000000     0.089950000000     0.290100000000     0          
O        O      0.250000000000     0.044000000000     0.294750000000     0          
O        O      0.426100000000     0.272650000000     0.187750000000     0          
O        O      0.447750000000     0.209600000000     0.221200000000     0          
O        O      0.309625000000     0.160050000000     0.290100000000     0          
O        O      0.323900000000     0.477350000000     0.187750000000     0          
O        O      0.302250000000     0.040400000000     0.221200000000     0          
O        O      0.440375000000     0.089950000000     0.290100000000     0          
O        O      0.426100000000     0.227350000000     0.312250000000     0          
O        O      0.447750000000     0.290400000000     0.278800000000     0          
O        O      0.309625000000     0.339950000000     0.209900000000     0          
O        O      0.323900000000     0.022650000000     0.312250000000     0          
O        O      0.302250000000     0.459600000000     0.278800000000     0          
O        O      0.440375000000     0.410050000000     0.209900000000     0          
O        O      0.448900000000     0.477350000000     0.562250000000     0          
O        O      0.437500000000     0.030450000000     0.625000000000     0          
O        O      0.427250000000     0.040400000000     0.528800000000     0          
O        O      0.250000000000     0.030950000000     0.564850000000     0          
O        O      0.315375000000     0.089950000000     0.959900000000     0          
O        O      0.375000000000     0.044000000000     0.955250000000     0          
O        O      0.437500000000     0.125000000000     0.875000000000     0          
O        O      0.250000000000     0.125000000000     0.935150000000     0          
O        O      0.301100000000     0.272650000000     0.562250000000     0          
O        O      0.312500000000     0.219550000000     0.625000000000     0          
O        O      0.322750000000     0.209600000000     0.528800000000     0          
O        O      0.250000000000     0.219050000000     0.564850000000     0          
O        O      0.434625000000     0.160050000000     0.959900000000     0          
O        O      0.375000000000     0.206000000000     0.955250000000     0          
O        O      0.312500000000     0.125000000000     0.875000000000     0          
O        O      0.448900000000     0.022650000000     0.937750000000     0          
O        O      0.437500000000     0.469550000000     0.875000000000     0          
O        O      0.427250000000     0.459600000000     0.971200000000     0          
O        O      0.250000000000     0.469050000000     0.935150000000     0          
O        O      0.315375000000     0.410050000000     0.540100000000     0          
O        O      0.375000000000     0.456000000000     0.544750000000     0          
O        O      0.437500000000     0.375000000000     0.625000000000     0          
O        O      0.250000000000     0.375000000000     0.564850000000     0          
O        O      0.301100000000     0.227350000000     0.937750000000     0          
O        O      0.312500000000     0.280450000000     0.875000000000     0          
O        O      0.322750000000     0.290400000000     0.971200000000     0          
O        O      0.250000000000     0.280950000000     0.935150000000     0          
O        O      0.434625000000     0.339950000000     0.540100000000     0          
O        O      0.375000000000     0.294000000000     0.544750000000     0          
O        O      0.312500000000     0.375000000000     0.625000000000     0          
O        O      0.301100000000     0.022650000000     0.937750000000     0          
O        O      0.312500000000     0.469550000000     0.875000000000     0          
O        O      0.322750000000     0.459600000000     0.971200000000     0          
O        O      0.434625000000     0.410050000000     0.540100000000     0          
O        O      0.448900000000     0.227350000000     0.937750000000     0          
O        O      0.437500000000     0.280450000000     0.875000000000     0          
O        O      0.427250000000     0.290400000000     0.971200000000     0          
O        O      0.315375000000     0.339950000000     0.540100000000     0          
O        O      0.301100000000     0.477350000000     0.562250000000     0          
O        O      0.312500000000     0.030450000000     0.625000000000     0          
O        O      0.322750000000     0.040400000000     0.528800000000     0          
O        O      0.434625000000     0.089950000000     0.959900000000     0          
O        O      0.448900000000     0.272650000000     0.562250000000     0          
O        O      0.437500000000     0.219550000000     0.625000000000     0          
O        O      0.427250000000     0.209600000000     0.528800000000     0          
O        O      0.315375000000     0.160050000000     0.959900000000     0          
O        O      0.323900000000     0.227350000000     0.812250000000     0          
O        O      0.302250000000     0.290400000000     0.778800000000     0          
O        O      0.375000000000     0.280950000000     0.814850000000     0          
O        O      0.440375000000     0.339950000000     0.709900000000     0          
O        O      0.250000000000     0.294000000000     0.705250000000     0          
O        O      0.375000000000     0.375000000000     0.685150000000     0          
O        O      0.426100000000     0.022650000000     0.812250000000     0          
O        O      0.447750000000     0.459600000000     0.778800000000     0          
O        O      0.375000000000     0.469050000000     0.814850000000     0          
O        O      0.309625000000     0.410050000000     0.709900000000     0          
O        O      0.250000000000     0.456000000000     0.705250000000     0          
O        O      0.323900000000     0.272650000000     0.687750000000     0          
O        O      0.302250000000     0.209600000000     0.721200000000     0          
O        O      0.375000000000     0.219050000000     0.685150000000     0          
O        O      0.440375000000     0.160050000000     0.790100000000     0          
O        O      0.250000000000     0.206000000000     0.794750000000     0          
O        O      0.375000000000     0.125000000000     0.814850000000     0          
O        O      0.426100000000     0.477350000000     0.687750000000     0          
O        O      0.447750000000     0.040400000000     0.721200000000     0          
O        O      0.375000000000     0.030950000000     0.685150000000     0          
O        O      0.309625000000     0.089950000000     0.790100000000     0          
O        O      0.250000000000     0.044000000000     0.794750000000     0          
O        O      0.426100000000     0.272650000000     0.687750000000     0          
O        O      0.447750000000     0.209600000000     0.721200000000     0          
O        O      0.309625000000     0.160050000000     0.790100000000     0          
O        O      0.323900000000     0.477350000000     0.687750000000     0          
O        O      0.302250000000     0.040400000000     0.721200000000     0          
O        O      0.440375000000     0.089950000000     0.790100000000     0          
O        O      0.426100000000     0.227350000000     0.812250000000     0          
O        O      0.447750000000     0.290400000000     0.778800000000     0          
O        O      0.309625000000     0.339950000000     0.709900000000     0          
O        O      0.323900000000     0.022650000000     0.812250000000     0          
O        O      0.302250000000     0.459600000000     0.778800000000     0          
O        O      0.440375000000     0.410050000000     0.709900000000     0          
O        O      0.448900000000     0.977350000000     0.062250000000     0          
O        O      0.437500000000     0.530450000000     0.125000000000     0          
O        O      0.427250000000     0.540400000000     0.028800000000     0          
O        O      0.250000000000     0.530950000000     0.064850000000     0          
O        O      0.315375000000     0.589950000000     0.459900000000     0          
O        O      0.375000000000     0.544000000000     0.455250000000     0          
O        O      0.437500000000     0.625000000000     0.375000000000     0          
O        O      0.250000000000     0.625000000000     0.435150000000     0          
O        O      0.301100000000     0.772650000000     0.062250000000     0          
O        O      0.312500000000     0.719550000000     0.125000000000     0          
O        O      0.322750000000     0.709600000000     0.028800000000     0          
O        O      0.250000000000     0.719050000000     0.064850000000     0          
O        O      0.434625000000     0.660050000000     0.459900000000     0          
O        O      0.375000000000     0.706000000000     0.455250000000     0          
O        O      0.312500000000     0.625000000000     0.375000000000     0          
O        O      0.448900000000     0.522650000000     0.437750000000     0          
O        O      0.437500000000     0.969550000000     0.375000000000     0          
O        O      0.427250000000     0.959600000000     0.471200000000     0          
O        O      0.250000000000     0.969050000000     0.435150000000     0          
O        O      0.315375000000     0.910050000000     0.040100000000     0          
O        O      0.375000000000     0.956000000000     0.044750000000     0          
O        O      0.437500000000     0.875000000000     0.125000000000     0          
O        O      0.250000000000     0.875000000000     0.064850000000     0          
O        O      0.301100000000     0.727350000000     0.437750000000     0          
O        O      0.312500000000     0.780450000000     0.375000000000     0          
O        O      0.322750000000     0.790400000000     0.471200000000     0          
O        O      0.250000000000     0.780950000000     0.435150000000     0          
O        O      0.434625000000     0.839950000000     0.040100000000     0          
O        O      0.375000000000     0.794000000000     0.044750000000     0          
O        O      0.312500000000     0.875000000000     0.125000000000     0          
O        O      0.301100000000     0.522650000000     0.437750000000     0          
O        O      0.312500000000     0.969550000000     0.375000000000     0          
O        O      0.322750000000     0.959600000000     0.471200000000     0          
O        O      0.434625000000     0.910050000000     0.040100000000     0          
O        O      0.448900000000     0.727350000000     0.437750000000     0          
O        O      0.437500000000     0.780450000000     0.375000000000     0          
O        O      0.427250000000     0.790400000000     0.471200000000     0          
O        O      0.315375000000     0.839950000000     0.040100000000     0          
O        O      0.301100000000     0.977350000000     0.062250000000     0          
O        O      0.312500000000     0.530450000000     0.125000000000     0          
O        O      0.322750000000     0.540400000000     0.028800000000     0          
O        O      0.434625000000     0.589950000000     0.459900000000     0          
O        O      0.448900000000     0.772650000000     0.062250000000     0          
O        O      0.437500000000     0.719550000000     0.125000000000     0          
O        O      0.427250000000     0.709600000000     0.028800000000     0          
O        O      0.315375000000     0.660050000000     0.459900000000     0          
O        O      0.323900000000     0.727350000000     0.312250000000     0          
O        O      0.302250000000     0.790400000000     0.278800000000     0          
O        O      0.375000000000     0.780950000000     0.314850000000     0          
O        O      0.440375000000     0.839950000000     0.209900000000     0          
O        O      0.250000000000     0.794000000000     0.205250000000     0          
O        O      0.375000000000     0.875000000000     0.185150000000     0          
O        O      0.426100000000     0.522650000000     0.312250000000     0          
O        O      0.447750000000     0.959600000000     0.278800000000     0          
O        O      0.375000000000     0.969050000000     0.314850000000     0          
O        O      0.309625000000     0.910050000000     0.209900000000     0          
O        O      0.250000000000     0.956000000000     0.205250000000     0          
O        O      0.323900000000     0.772650000000     0.187750000000     0          
O        O      0.302250000000     0.709600000000     0.221200000000     0          
O        O      0.375000000000     0.719050000000     0.185150000000     0          
O        O      0.440375000000     0.660050000000     0.290100000000     0          
O        O      0.250000000000     0.706000000000     0.294750000000     0          
O        O      0.375000000000     0.625000000000     0.314850000000     0          
O        O      0.426100000000     0.977350000000     0.187750000000     0          
O        O      0.447750000000     0.540400000000     0.221200000000     0          
O        O      0.375000000000     0.530950000000     0.185150000000     0          
O        O      0.309625000000     0.589950000000     0.290100000000     0          
O        O      0.250000000000     0.544000000000     0.294750000000     0          
O        O      0.426100000000     0.772650000000     0.187750000000     0          
O        O      0.447750000000     0.709600000000     0.221200000000     0          
O        O      0.309625000000     0.660050000000     0.290100000000     0          
O        O      0.323900000000     0.977350000000     0.187750000000     0          
O        O      0.302250000000     0.540400000000     0.221200000000     0          
O        O      0.440375000000     0.589950000000     0.290100000000     0          
O        O      0.426100000000     0.727350000000     0.312250000000     0          
O        O      0.447750000000     0.790400000000     0.278800000000     0          
O        O      0.309625000000     0.839950000000     0.209900000000     0          
O        O      0.323900000000     0.522650000000     0.312250000000     0          
O        O      0.302250000000     0.959600000000     0.278800000000     0          
O        O      0.440375000000     0.910050000000     0.209900000000     0          
O        O      0.448900000000     0.977350000000     0.562250000000     0          
O        O      0.437500000000     0.530450000000     0.625000000000     0          
O        O      0.427250000000     0.540400000000     0.528800000000     0          
O        O      0.250000000000     0.530950000000     0.564850000000     0          
O        O      0.315375000000     0.589950000000     0.959900000000     0          
O        O      0.375000000000     0.544000000000     0.955250000000     0          
O        O      0.437500000000     0.625000000000     0.875000000000     0          
O        O      0.250000000000     0.625000000000     0.935150000000     0          
O        O      0.301100000000     0.772650000000     0.562250000000     0          
O        O      0.312500000000     0.719550000000     0.625000000000     0          
O        O      0.322750000000     0.709600000000     0.528800000000     0          
O        O      0.250000000000     0.719050000000     0.564850000000     0          
O        O      0.434625000000     0.660050000000     0.959900000000     0          
O        O      0.375000000000     0.706000000000     0.955250000000     0          
O        O      0.312500000000     0.625000000000     0.875000000000     0          
O        O      0.448900000000     0.522650000000     0.937750000000     0          
O        O      0.437500000000     0.969550000000     0.875000000000     0          
O        O      0.427250000000     0.959600000000     0.971200000000     0          
O        O      0.250000000000     0.969050000000     0.935150000000     0          
O        O      0.315375000000     0.910050000000     0.540100000000     0          
O        O      0.375000000000     0.956000000000     0.544750000000     0          
O        O      0.437500000000     0.875000000000     0.625000000000     0          
O        O      0.250000000000     0.875000000000     0.564850000000     0          
O        O      0.301100000000     0.727350000000     0.937750000000     0          
O        O      0.312500000000     0.780450000000     0.875000000000     0          
O        O      0.322750000000     0.790400000000     0.971200000000     0          
O        O      0.250000000000     0.780950000000     0.935150000000     0          
O        O      0.434625000000     0.839950000000     0.540100000000     0          
O        O      0.375000000000     0.794000000000     0.544750000000     0          
O        O      0.312500000000     0.875000000000     0.625000000000     0          
O        O      0.301100000000     0.522650000000     0.937750000000     0          
O        O      0.312500000000     0.969550000000     0.875000000000     0          
O        O      0.322750000000     0.959600000000     0.971200000000     0          
O        O      0.434625000000     0.910050000000     0.540100000000     0          
O        O      0.448900000000     0.727350000000     0.937750000000     0          
O        O      0.437500000000     0.780450000000     0.875000000000     0          
O        O      0.427250000000     0.790400000000     0.971200000000     0          
O        O      0.315375000000     0.839950000000     0.540100000000     0          
O        O      0.301100000000     0.977350000000     0.562250000000     0          
O        O      0.312500000000     0.530450000000     0.625000000000     0          
O        O      0.322750000000     0.540400000000     0.528800000000     0          
O        O      0.434625000000     0.589950000000     0.959900000000     0          
O        O      0.448900000000     0.772650000000     0.562250000000     0          
O        O      0.437500000000     0.719550000000     0.625000000000     0          
O        O      0.427250000000     0.709600000000     0.528800000000     0          
O        O      0.315375000000     0.660050000000     0.959900000000     0          
O        O      0.323900000000     0.727350000000     0.812250000000     0          
O        O      0.302250000000     0.790400000000     0.778800000000     0          
O        O      0.375000000000     0.780950000000     0.814850000000     0          
O        O      0.440375000000     0.839950000000     0.709900000000     0          
O        O      0.250000000000     0.794000000000     0.705250000000     0          
O        O      0.375000000000     0.875000000000     0.685150000000     0          
O        O      0.426100000000     0.522650000000     0.812250000000     0          
O        O      0.447750000000     0.959600000000     0.778800000000     0          
O        O      0.375000000000     0.969050000000     0.814850000000     0          
O        O      0.309625000000     0.910050000000     0.709900000000     0          
O        O      0.250000000000     0.956000000000     0.705250000000     0          
O        O      0.323900000000     0.772650000000     0.687750000000     0          
O        O      0.302250000000     0.709600000000     0.721200000000     0          
O        O      0.375000000000     0.719050000000     0.685150000000     0          
O        O      0.440375000000     0.660050000000     0.790100000000     0          
O        O      0.250000000000     0.706000000000     0.794750000000     0          
O        O      0.375000000000     0.625000000000     0.814850000000     0          
O        O      0.426100000000     0.977350000000     0.687750000000     0          
O        O      0.447750000000     0.540400000000     0.721200000000     0          
O        O      0.375000000000     0.530950000000     0.685150000000     0          
O        O      0.309625000000     0.589950000000     0.790100000000     0          
O        O      0.250000000000     0.544000000000     0.794750000000     0          
O        O      0.426100000000     0.772650000000     0.687750000000     0          
O        O      0.447750000000     0.709600000000     0.721200000000     0          
O        O      0.309625000000     0.660050000000     0.790100000000     0          
O        O      0.323900000000     0.977350000000     0.687750000000     0          
O        O      0.302250000000     0.540400000000     0.721200000000     0          
O        O      0.440375000000     0.589950000000     0.790100000000     0          
O        O      0.426100000000     0.727350000000     0.812250000000     0          
O        O      0.447750000000     0.790400000000     0.778800000000     0          
O        O      0.309625000000     0.839950000000     0.709900000000     0          
O        O      0.323900000000     0.522650000000     0.812250000000     0          
O        O      0.302250000000     0.959600000000     0.778800000000     0          
O        O      0.440375000000     0.910050000000     0.709900000000     0          
O        O      0.698900000000     0.477350000000     0.062250000000     0          
O        O      0.687500000000     0.030450000000     0.125000000000     0          
O        O      0.677250000000     0.040400000000     0.028800000000     0          
O        O      0.500000000000     0.030950000000     0.064850000000     0          
O        O      0.565375000000     0.089950000000     0.459900000000     0          
O        O      0.625000000000     0.044000000000     0.455250000000     0          
O        O      0.687500000000     0.125000000000     0.375000000000     0          
O        O      0.500000000000     0.125000000000     0.435150000000     0          
O        O      0.551100000000     0.272650000000     0.062250000000     0          
O        O      0.562500000000     0.219550000000     0.125000000000     0          
O        O      0.572750000000     0.209600000000     0.028800000000     0          
O        O      0.500000000000     0.219050000000     0.064850000000     0          
O        O      0.684625000000     0.160050000000     0.459900000000     0          
O        O      0.625000000000     0.206000000000     0.455250000000     0          
O        O      0.562500000000     0.125000000000     0.375000000000     0          
O        O      0.698900000000     0.022650000000     0.437750000000     0          
O        O      0.687500000000     0.469550000000     0.375000000000     0          
O        O      0.677250000000     0.459600000000     0.471200000000     0          
O        O      0.500000000000     0.469050000000     0.435150000000     0          
O        O      0.565375000000     0.410050000000     0.040100000000     0          
O        O      0.625000000000     0.456000000000     0.044750000000     0          
O        O      0.687500000000     0.375000000000     0.125000000000     0          
O        O      0.500000000000     0.375000000000     0.064850000000     0          
O        O      0.551100000000     0.227350000000     0.437750000000     0          
O        O      0.562500000000     0.280450000000     0.375000000000     0          
O        O      0.572750000000     0.290400000000     0.471200000000     0          
O        O      0.500000000000     0.280950000000     0.435150000000     0          
O        O      0.684625000000     0.339950000000     0.040100000000     0          
O        O      0.625000000000     0.294000000000     0.044750000000     0          
O        O      0.562500000000     0.375000000000     0.125000000000     0          
O        O      0.551100000000     0.022650000000     0.437750000000     0          
O        O      0.562500000000     0.469550000000     0.375000000000     0          
O        O      0.572750000000     0.459600000000     0.471200000000     0          
O        O      0.684625000000     0.410050000000     0.040100000000     0          
O        O      0.698900000000     0.227350000000     0.437750000000     0          
O        O      0.687500000000     0.280450000000     0.375000000000     0          
O        O      0.677250000000     0.290400000000     0.471200000000     0          
O        O      0.565375000000     0.339950000000     0.040100000000     0          
O        O      0.551100000000     0.477350000000     0.062250000000     0          
O        O      0.562500000000     0.030450000000     0.125000000000     0          
O        O      0.572750000000     0.040400000000     0.028800000000     0          
O        O      0.684625000000     0.089950000000     0.459900000000     0          
O        O      0.698900000000     0.272650000000     0.062250000000     0          
O        O      0.687500000000     0.219550000000     0.125000000000     0          
O        O      0.677250000000     0.209600000000     0.028800000000     0          
O        O      0.565375000000     0.160050000000     0.459900000000     0          
O        O      0.573900000000     0.227350000000     0.312250000000     0          
O        O      0.552250000000     0.290400000000     0.278800000000     0          
O        O      0.625000000000     0.280950000000     0.314850000000     0          
O        O      0.690375000000     0.339950000000     0.209900000000     0          
O        O      0.500000000000     0.294000000000     0.205250000000     0          
O        O      0.625000000000     0.375000000000     0.185150000000     0          
O        O      0.676100000000     0.022650000000     0.312250000000     0          
O        O      0.697750000000     0.459600000000     0.278800000000     0          
O        O      0.625000000000     0.469050000000     0.314850000000     0          
O        O      0.559625000000     0.410050000000     0.209900000000     0          
O        O      0.500000000000     0.456000000000     0.205250000000     0          
O        O      0.573900000000     0.272650000000     0.187750000000     0          
O        O      0.552250000000     0.209600000000     0.221200000000     0          
O        O      0.625000000000     0.219050000000     0.185150000000     0          
O        O      0.690375000000     0.160050000000     0.290100000000     0          
O        O      0.500000000000     0.206000000000     0.294750000000     0          
O        O      0.625000000000     0.125000000000     0.314850000000     0          
O        O      0.676100000000     0.477350000000     0.187750000000     0          
O        O      0.697750000000     0.040400000000     0.221200000000     0          
O        O      0.625000000000     0.030950000000     0.185150000000     0          
O        O      0.559625000000     0.089950000000     0.290100000000     0          
O        O      0.500000000000     0.044000000000     0.294750000000     0          
O        O      0.676100000000     0.272650000000     0.187750000000     0          
O        O      0.697750000000     0.209600000000     0.221200000000     0          
O        O      0.559625000000     0.160050000000     0.290100000000     0          
O        O      0.573900000000     0.477350000000     0.187750000000     0          
O        O      0.552250000000     0.040400000000     0.221200000000     0          
O        O      0.690375000000     0.089950000000     0.290100000000     0          
O        O      0.676100000000     0.227350000000     0.312250000000     0          
O        O      0.697750000000     0.290400000000     0.278800000000     0          
O        O      0.559625000000     0.339950000000     0.209900000000     0          
O        O      0.573900000000     0.022650000000     0.312250000000     0          
O        O      0.552250000000     0.459600000000     0.278800000000     0          
O        O      0.690375000000     0.410050000000     0.209900000000     0          
O        O      0.698900000000     0.477350000000     0.562250000000     0          
O        O      0.687500000000     0.030450000000     0.625000000000     0          
O        O      0.677250000000     0.040400000000     0.528800000000     0          
O        O      0.500000000000     0.030950000000     0.564850000000     0          
O        O      0.565375000000     0.089950000000     0.959900000000     0          
O        O      0.625000000000     0.044000000000     0.955250000000     0          
O        O      0.687500000000     0.125000000000     0.875000000000     0          
O        O      0.500000000000     0.125000000000     0.935150000000     0          
O        O      0.551100000000     0.272650000000     0.562250000000     0          
O        O      0.562500000000     0.219550000000     0.625000000000     0          
O        O      0.572750000000     0.209600000000     0.528800000000     0          
O        O      0.500000000000     0.219050000000     0.564850000000     0          
O        O      0.684625000000     0.160050000000     0.959900000000     0          
O        O      0.625000000000     0.206000000000     0.955250000000     0          
O        O      0.562500000000     0.125000000000     0.875000000000     0          
O        O      0.698900000000     0.022650000000     0.937750000000     0          
O        O      0.687500000000     0.469550000000     0.875000000000     0          
O        O      0.677250000000     0.459600000000     0.971200000000     0          
O        O      0.500000000000     0.469050000000     0.935150000000     0          
O        O      0.565375000000     0.410050000000     0.540100000000     0          
O        O      0.625000000000     0.456000000000     0.544750000000     0          
O        O      0.687500000000     0.375000000000     0.625000000000     0          
O        O      0.500000000000     0.375000000000     0.564850000000     0          
O        O      0.551100000000     0.227350000000     0.937750000000     0          
O        O      0.562500000000     0.280450000000     0.875000000000     0          
O        O      0.572750000000     0.290400000000     0.971200000000     0          
O        O      0.500000000000     0.280950000000     0.935150000000     0          
O        O      0.684625000000     0.339950000000     0.540100000000     0          
O        O      0.625000000000     0.294000000000     0.544750000000     0          
O        O      0.562500000000     0.375000000000     0.625000000000     0          
O        O      0.551100000000     0.022650000000     0.937750000000     0          
O        O      0.562500000000     0.469550000000     0.875000000000     0          
O        O      0.572750000000     0.459600000000     0.971200000000     0          
O        O      0.684625000000     0.410050000000     0.540100000000     0          
O        O      0.698900000000     0.227350000000     0.937750000000     0          
O        O      0.687500000000     0.280450000000     0.875000000000     0          
O        O      0.677250000000     0.290400000000     0.971200000000     0          
O        O      0.565375000000     0.339950000000     0.540100000000     0          
O        O      0.551100000000     0.477350000000     0.562250000000     0          
O        O      0.562500000000     0.030450000000     0.625000000000     0          
O        O      0.572750000000     0.040400000000     0.528800000000     0          
O        O      0.684625000000     0.089950000000     0.959900000000     0          
O        O      0.698900000000     0.272650000000     0.562250000000     0          
O        O      0.687500000000     0.219550000000     0.625000000000     0          
O        O      0.677250000000     0.209600000000     0.528800000000     0          
O        O      0.565375000000     0.160050000000     0.959900000000     0          
O        O      0.573900000000     0.227350000000     0.812250000000     0          
O        O      0.552250000000     0.290400000000     0.778800000000     0          
O        O      0.625000000000     0.280950000000     0.814850000000     0          
O        O      0.690375000000     0.339950000000     0.709900000000     0          
O        O      0.500000000000     0.294000000000     0.705250000000     0          
O        O      0.625000000000     0.375000000000     0.685150000000     0          
O        O      0.676100000000     0.022650000000     0.812250000000     0          
O        O      0.697750000000     0.459600000000     0.778800000000     0          
O        O      0.625000000000     0.469050000000     0.814850000000     0          
O        O      0.559625000000     0.410050000000     0.709900000000     0          
O        O      0.500000000000     0.456000000000     0.705250000000     0          
O        O      0.573900000000     0.272650000000     0.687750000000     0          
O        O      0.552250000000     0.209600000000     0.721200000000     0          
O        O      0.625000000000     0.219050000000     0.685150000000     0          
O        O      0.690375000000     0.160050000000     0.790100000000     0          
O        O      0.500000000000     0.206000000000     0.794750000000     0          
O        O      0.625000000000     0.125000000000     0.814850000000     0          
O        O      0.676100000000     0.477350000000     0.687750000000     0          
O        O      0.697750000000     0.040400000000     0.721200000000     0          
O        O      0.625000000000     0.030950000000     0.685150000000     0          
O        O      0.559625000000     0.089950000000     0.790100000000     0          
O        O      0.500000000000     0.044000000000     0.794750000000     0          
O        O      0.676100000000     0.272650000000     0.687750000000     0          
O        O      0.697750000000     0.209600000000     0.721200000000     0          
O        O      0.559625000000     0.160050000000     0.790100000000     0          
O        O      0.573900000000     0.477350000000     0.687750000000     0          
O        O      0.552250000000     0.040400000000     0.721200000000     0          
O        O      0.690375000000     0.089950000000     0.790100000000     0          
O        O      0.676100000000     0.227350000000     0.812250000000     0          
O        O      0.697750000000     0.290400000000     0.778800000000     0          
O        O      0.559625000000     0.339950000000     0.709900000000     0          
O        O      0.573900000000     0.022650000000     0.812250000000     0          
O        O      0.552250000000     0.459600000000     0.778800000000     0          
O        O      0.690375000000     0.410050000000     0.709900000000     0          
O        O      0.698900000000     0.977350000000     0.062250000000     0          
O        O      0.687500000000     0.530450000000     0.125000000000     0          
O        O      0.677250000000     0.540400000000     0.028800000000     0          
O        O      0.500000000000     0.530950000000     0.064850000000     0          
O        O      0.565375000000     0.589950000000     0.459900000000     0          
O        O      0.625000000000     0.544000000000     0.455250000000     0          
O        O      0.687500000000     0.625000000000     0.375000000000     0          
O        O      0.500000000000     0.625000000000     0.435150000000     0          
O        O      0.551100000000     0.772650000000     0.062250000000     0          
O        O      0.562500000000     0.719550000000     0.125000000000     0          
O        O      0.572750000000     0.709600000000     0.028800000000     0          
O        O      0.500000000000     0.719050000000     0.064850000000     0          
O        O      0.684625000000     0.660050000000     0.459900000000     0          
O        O      0.625000000000     0.706000000000     0.455250000000     0          
O        O      0.562500000000     0.625000000000     0.375000000000     0          
O        O      0.698900000000     0.522650000000     0.437750000000     0          
O        O      0.687500000000     0.969550000000     0.375000000000     0          
O        O      0.677250000000     0.959600000000     0.471200000000     0          
O        O      0.500000000000     0.969050000000     0.435150000000     0          
O        O      0.565375000000     0.910050000000     0.040100000000     0          
O        O      0.625000000000     0.956000000000     0.044750000000     0          
O        O      0.687500000000     0.875000000000     0.125000000000     0          
O        O      0.500000000000     0.875000000000     0.064850000000     0          
O        O      0.551100000000     0.727350000000     0.437750000000     0          
O        O      0.562500000000     0.780450000000     0.375000000000     0          
O        O      0.572750000000     0.790400000000     0.471200000000     0          
O        O      0.500000000000     0.780950000000     0.435150000000     0          
O        O      0.684625000000     0.839950000000     0.040100000000     0          
O        O      0.625000000000     0.794000000000     0.044750000000     0          
O        O      0.562500000000     0.875000000000     0.125000000000     0          
O        O      0.551100000000     0.522650000000     0.437750000000     0          
O        O      0.562500000000     0.969550000000     0.375000000000     0          
O        O      0.572750000000     0.959600000000     0.471200000000     0          
O        O      0.684625000000     0.910050000000     0.040100000000     0          
O        O      0.698900000000     0.727350000000     0.437750000000     0          
O        O      0.687500000000     0.780450000000     0.375000000000     0          
O        O      0.677250000000     0.790400000000     0.471200000000     0          
O        O      0.565375000000     0.839950000000     0.040100000000     0          
O        O      0.551100000000     0.977350000000     0.062250000000     0          
O        O      0.562500000000     0.530450000000     0.125000000000     0          
O        O      0.572750000000     0.540400000000     0.028800000000     0          
O        O      0.684625000000     0.589950000000     0.459900000000     0          
O        O      0.698900000000     0.772650000000     0.062250000000     0          
O        O      0.687500000000     0.719550000000     0.125000000000     0          
O        O      0.677250000000     0.709600000000     0.028800000000     0          
O        O      0.565375000000     0.660050000000     0.459900000000     0          
O        O      0.573900000000     0.727350000000     0.312250000000     0          
O        O      0.552250000000     0.790400000000     0.278800000000     0          
O        O      0.625000000000     0.780950000000     0.314850000000     0          
O        O      0.690375000000     0.839950000000     0.209900000000     0          
O        O      0.500000000000     0.794000000000     0.205250000000     0          
O        O      0.625000000000     0.875000000000     0.185150000000     0          
O        O      0.676100000000     0.522650000000     0.312250000000     0          
O        O      0.697750000000     0.959600000000     0.278800000000     0          
O        O      0.625000000000     0.969050000000     0.314850000000     0          
O        O      0.559625000000     0.910050000000     0.209900000000     0          
O        O      0.500000000000     0.956000000000     0.205250000000     0          
O        O      0.573900000000     0.772650000000     0.187750000000     0          
O        O      0.552250000000     0.709600000000     0.221200000000     0          
O        O      0.625000000000     0.719050000000     0.185150000000     0          
O        O      0.690375000000     0.660050000000     0.290100000000     0          
O        O      0.500000000000     0.706000000000     0.294750000000     0          
O        O      0.625000000000     0.625000000000     0.314850000000     0          
O        O      0.676100000000     0.977350000000     0.187750000000     0          
O        O      0.697750000000     0.540400000000     0.221200000000     0          
O        O      0.625000000000     0.530950000000     0.185150000000     0          
O        O      0.559625000000     0.589950000000     0.290100000000     0          
O        O      0.500000000000     0.544000000000     0.294750000000     0          
O        O      0.676100000000     0.772650000000     0.187750000000     0          
O        O      0.697750000000     0.709600000000     0.221200000000     0          
O        O      0.559625000000     0.660050000000     0.290100000000     0          
O        O      0.573900000000     0.977350000000     0.187750000000     0          
O        O      0.552250000000     0.540400000000     0.221200000000     0          
O        O      0.690375000000     0.589950000000     0.290100000000     0          
O        O      0.676100000000     0.727350000000     0.312250000000     0          
O        O      0.697750000000     0.790400000000     0.278800000000     0          
O        O      0.559625000000     0.839950000000     0.209900000000     0          
O        O      0.573900000000     0.522650000000     0.312250000000     0          
O        O      0.552250000000     0.959600000000     0.278800000000     0          
O        O      0.690375000000     0.910050000000     0.209900000000     0          
O        O      0.698900000000     0.977350000000     0.562250000000     0          
O        O      0.687500000000     0.530450000000     0.625000000000     0          
O        O      0.677250000000     0.540400000000     0.528800000000     0          
O        O      0.500000000000     0.530950000000     0.564850000000     0          
O        O      0.565375000000     0.589950000000     0.959900000000     0          
O        O      0.625000000000     0.544000000000     0.955250000000     0          
O        O      0.687500000000     0.625000000000     0.875000000000     0          
O        O      0.500000000000     0.625000000000     0.935150000000     0          
O        O      0.551100000000     0.772650000000     0.562250000000     0          
O        O      0.562500000000     0.719550000000     0.625000000000     0          
O        O      0.572750000000     0.709600000000     0.528800000000     0          
O        O      0.500000000000     0.719050000000     0.564850000000     0          
O        O      0.684625000000     0.660050000000     0.959900000000     0          
O        O      0.625000000000     0.706000000000     0.955250000000     0          
O        O      0.562500000000     0.625000000000     0.875000000000     0          
O        O      0.698900000000     0.522650000000     0.937750000000     0          
O        O      0.687500000000     0.969550000000     0.875000000000     0          
O        O      0.677250000000     0.959600000000     0.971200000000     0          
O        O      0.500000000000     0.969050000000     0.935150000000     0          
O        O      0.565375000000     0.910050000000     0.540100000000     0          
O        O      0.625000000000     0.956000000000     0.544750000000     0          
O        O      0.687500000000     0.875000000000     0.625000000000     0          
O        O      0.500000000000     0.875000000000     0.564850000000     0          
O        O      0.551100000000     0.727350000000     0.937750000000     0          
O        O      0.562500000000     0.780450000000     0.875000000000     0          
O        O      0.572750000000     0.790400000000     0.971200000000     0          
O        O      0.500000000000     0.780950000000     0.935150000000     0          
O        O      0.684625000000     0.839950000000     0.540100000000     0          
O        O      0.625000000000     0.794000000000     0.544750000000     0          
O        O      0.562500000000     0.875000000000     0.625000000000     0          
O        O      0.551100000000     0.522650000000     0.937750000000     0          
O        O      0.562500000000     0.969550000000     0.875000000000     0          
O        O      0.572750000000     0.959600000000     0.971200000000     0          
O        O      0.684625000000     0.910050000000     0.540100000000     0          
O        O      0.698900000000     0.727350000000     0.937750000000     0          
O        O      0.687500000000     0.780450000000     0.875000000000     0          
O        O      0.677250000000     0.790400000000     0.971200000000     0          
O        O      0.565375000000     0.839950000000     0.540100000000     0          
O        O      0.551100000000     0.977350000000     0.562250000000     0          
O        O      0.562500000000     0.530450000000     0.625000000000     0          
O        O      0.572750000000     0.540400000000     0.528800000000     0          
O        O      0.684625000000     0.589950000000     0.959900000000     0          
O        O      0.698900000000     0.772650000000     0.562250000000     0          
O        O      0.687500000000     0.719550000000     0.625000000000     0          
O        O      0.677250000000     0.709600000000     0.528800000000     0          
O        O      0.565375000000     0.660050000000     0.959900000000     0          
O        O      0.573900000000     0.727350000000     0.812250000000     0          
O        O      0.552250000000     0.790400000000     0.778800000000     0          
O        O      0.625000000000     0.780950000000     0.814850000000     0          
O        O      0.690375000000     0.839950000000     0.709900000000     0          
O        O      0.500000000000     0.794000000000     0.705250000000     0          
O        O      0.625000000000     0.875000000000     0.685150000000     0          
O        O      0.676100000000     0.522650000000     0.812250000000     0          
O        O      0.697750000000     0.959600000000     0.778800000000     0          
O        O      0.625000000000     0.969050000000     0.814850000000     0          
O        O      0.559625000000     0.910050000000     0.709900000000     0          
O        O      0.500000000000     0.956000000000     0.705250000000     0          
O        O      0.573900000000     0.772650000000     0.687750000000     0          
O        O      0.552250000000     0.709600000000     0.721200000000     0          
O        O      0.625000000000     0.719050000000     0.685150000000     0          
O        O      0.690375000000     0.660050000000     0.790100000000     0          
O        O      0.500000000000     0.706000000000     0.794750000000     0          
O        O      0.625000000000     0.625000000000     0.814850000000     0          
O        O      0.676100000000     0.977350000000     0.687750000000     0          
O        O      0.697750000000     0.540400000000     0.721200000000     0          
O        O      0.625000000000     0.530950000000     0.685150000000     0          
O        O      0.559625000000     0.589950000000     0.790100000000     0          
O        O      0.500000000000     0.544000000000     0.794750000000     0          
O        O      0.676100000000     0.772650000000     0.687750000000     0          
O        O      0.697750000000     0.709600000000     0.721200000000     0          
O        O      0.559625000000     0.660050000000     0.790100000000     0          
O        O      0.573900000000     0.977350000000     0.687750000000     0          
O        O      0.552250000000     0.540400000000     0.721200000000     0          
O        O      0.690375000000     0.589950000000     0.790100000000     0          
O        O      0.676100000000     0.727350000000     0.812250000000     0          
O        O      0.697750000000     0.790400000000     0.778800000000     0          
O        O      0.559625000000     0.839950000000     0.709900000000     0          
O        O      0.573900000000     0.522650000000     0.812250000000     0          
O        O      0.552250000000     0.959600000000     0.778800000000     0          
O        O      0.690375000000     0.910050000000     0.709900000000     0          
O        O      0.948900000000     0.477350000000     0.062250000000     0          
O        O      0.937500000000     0.030450000000     0.125000000000     0          
O        O      0.927250000000     0.040400000000     0.028800000000     0          
O        O      0.750000000000     0.030950000000     0.064850000000     0          
O        O      0.815375000000     0.089950000000     0.459900000000     0          
O        O      0.875000000000     0.044000000000     0.455250000000     0          
O        O      0.937500000000     0.125000000000     0.375000000000     0          
O        O      0.750000000000     0.125000000000     0.435150000000     0          
O        O      0.801100000000     0.272650000000     0.062250000000     0          
O        O      0.812500000000     0.219550000000     0.125000000000     0          
O        O      0.822750000000     0.209600000000     0.028800000000     0          
O        O      0.750000000000     0.219050000000     0.064850000000     0          
O        O      0.934625000000     0.160050000000     0.459900000000     0          
O        O      0.875000000000     0.206000000000     0.455250000000     0          
O        O      0.812500000000     0.125000000000     0.375000000000     0          
O        O      0.948900000000     0.022650000000     0.437750000000     0          
O        O      0.937500000000     0.469550000000     0.375000000000     0          
O        O      0.927250000000     0.459600000000     0.471200000000     0          
O        O      0.750000000000     0.469050000000     0.435150000000     0          
O        O      0.815375000000     0.410050000000     0.040100000000     0          
O        O      0.875000000000     0.456000000000     0.044750000000     0          
O        O      0.937500000000     0.375000000000     0.125000000000     0          
O        O      0.750000000000     0.375000000000     0.064850000000     0          
O        O      0.801100000000     0.227350000000     0.437750000000     0          
O        O      0.812500000000     0.280450000000     0.375000000000     0          
O        O      0.822750000000     0.290400000000     0.471200000000     0          
O        O      0.750000000000     0.280950000000     0.435150000000     0          
O        O      0.934625000000     0.339950000000     0.040100000000     0          
O        O      0.875000000000     0.294000000000     0.044750000000     0          
O        O      0.812500000000     0.375000000000     0.125000000000     0          
O        O      0.801100000000     0.022650000000     0.437750000000     0          
O        O      0.812500000000     0.469550000000     0.375000000000     0          
O        O      0.822750000000     0.459600000000     0.471200000000     0          
O        O      0.934625000000     0.410050000000     0.040100000000     0          
O        O      0.948900000000     0.227350000000     0.437750000000     0          
O        O      0.937500000000     0.280450000000     0.375000000000     0          
O        O      0.927250000000     0.290400000000     0.471200000000     0          
O        O      0.815375000000     0.339950000000     0.040100000000     0          
O        O      0.801100000000     0.477350000000     0.062250000000     0          
O        O      0.812500000000     0.030450000000     0.125000000000     0          
O        O      0.822750000000     0.040400000000     0.028800000000     0          
O        O      0.934625000000     0.089950000000     0.459900000000     0          
O        O      0.948900000000     0.272650000000     0.062250000000     0          
O        O      0.937500000000     0.219550000000     0.125000000000     0          
O        O      0.927250000000     0.209600000000     0.028800000000     0          
O        O      0.815375000000     0.160050000000     0.459900000000     0          
O        O      0.823900000000     0.227350000000     0.312250000000     0          
O        O      0.802250000000     0.290400000000     0.278800000000     0          
O        O      0.875000000000     0.280950000000     0.314850000000     0          
O        O      0.940375000000     0.339950000000     0.209900000000     0          
O        O      0.750000000000     0.294000000000     0.205250000000     0          
O        O      0.875000000000     0.375000000000     0.185150000000     0          
O        O      0.926100000000     0.022650000000     0.312250000000     0          
O        O      0.947750000000     0.459600000000     0.278800000000     0          
O        O      0.875000000000     0.469050000000     0.314850000000     0          
O        O      0.809625000000     0.410050000000     0.209900000000     0          
O        O      0.750000000000     0.456000000000     0.205250000000     0          
O        O      0.823900000000     0.272650000000     0.187750000000     0          
O        O      0.802250000000     0.209600000000     0.221200000000     0          
O        O      0.875000000000     0.219050000000     0.185150000000     0          
O        O      0.940375000000     0.160050000000     0.290100000000     0          
O        O      0.750000000000     0.206000000000     0.294750000000     0          
O        O      0.875000000000     0.125000000000     0.314850000000     0          
O        O      0.926100000000     0.477350000000     0.187750000000     0          
O        O      0.947750000000     0.040400000000     0.221200000000     0          
O        O      0.875000000000     0.030950000000     0.185150000000     0          
O        O      0.809625000000     0.089950000000     0.290100000000     0          
O        O      0.750000000000     0.044000000000     0.294750000000     0          
O        O      0.926100000000     0.272650000000     0.187750000000     0          
O        O      0.947750000000     0.209600000000     0.221200000000     0          
O        O      0.809625000000     0.160050000000     0.290100000000     0          
O        O      0.823900000000     0.477350000000     0.187750000000     0          
O        O      0.802250000000     0.040400000000     0.221200000000     0          
O        O      0.940375000000     0.089950000000     0.290100000000     0          
O        O      0.926100000000     0.227350000000     0.312250000000     0          
O        O      0.947750000000     0.290400000000     0.278800000000     0          
O        O      0.809625000000     0.339950000000     0.209900000000     0          
O        O      0.823900000000     0.022650000000     0.312250000000     0          
O        O      0.802250000000     0.459600000000     0.278800000000     0          
O        O      0.940375000000     0.410050000000     0.209900000000     0          
O        O      0.948900000000     0.477350000000     0.562250000000     0          
O        O      0.937500000000     0.030450000000     0.625000000000     0          
O        O      0.927250000000     0.040400000000     0.528800000000     0          
O        O      0.750000000000     0.030950000000     0.564850000000     0          
O        O      0.815375000000     0.089950000000     0.959900000000     0          
O        O      0.875000000000     0.044000000000     0.955250000000     0          
O        O      0.937500000000     0.125000000000     0.875000000000     0          
O        O      0.750000000000     0.125000000000     0.935150000000     0          
O        O      0.801100000000     0.272650000000     0.562250000000     0          
O        O      0.812500000000     0.219550000000     0.625000000000     0          
O        O      0.822750000000     0.209600000000     0.528800000000     0          
O        O      0.750000000000     0.219050000000     0.564850000000     0          
O        O      0.934625000000     0.160050000000     0.959900000000     0          
O        O      0.875000000000     0.206000000000     0.955250000000     0          
O        O      0.812500000000     0.125000000000     0.875000000000     0          
O        O      0.948900000000     0.022650000000     0.937750000000     0          
O        O      0.937500000000     0.469550000000     0.875000000000     0          
O        O      0.927250000000     0.459600000000     0.971200000000     0          
O        O      0.750000000000     0.469050000000     0.935150000000     0          
O        O      0.815375000000     0.410050000000     0.540100000000     0          
O        O      0.875000000000     0.456000000000     0.544750000000     0          
O        O      0.937500000000     0.375000000000     0.625000000000     0          
O        O      0.750000000000     0.375000000000     0.564850000000     0          
O        O      0.801100000000     0.227350000000     0.937750000000     0          
O        O      0.812500000000     0.280450000000     0.875000000000     0          
O        O      0.822750000000     0.290400000000     0.971200000000     0          
O        O      0.750000000000     0.280950000000     0.935150000000     0          
O        O      0.934625000000     0.339950000000     0.540100000000     0          
O        O      0.875000000000     0.294000000000     0.544750000000     0          
O        O      0.812500000000     0.375000000000     0.625000000000     0          
O        O      0.801100000000     0.022650000000     0.937750000000     0          
O        O      0.812500000000     0.469550000000     0.875000000000     0          
O        O      0.822750000000     0.459600000000     0.971200000000     0          
O        O      0.934625000000     0.410050000000     0.540100000000     0          
O        O      0.948900000000     0.227350000000     0.937750000000     0          
O        O      0.937500000000     0.280450000000     0.875000000000     0          
O        O      0.927250000000     0.290400000000     0.971200000000     0          
O        O      0.815375000000     0.339950000000     0.540100000000     0          
O        O      0.801100000000     0.477350000000     0.562250000000     0          
O        O      0.812500000000     0.030450000000     0.625000000000     0          
O        O      0.822750000000     0.040400000000     0.528800000000     0          
O        O      0.934625000000     0.089950000000     0.959900000000     0          
O        O      0.948900000000     0.272650000000     0.562250000000     0          
O        O      0.937500000000     0.219550000000     0.625000000000     0          
O        O      0.927250000000     0.209600000000     0.528800000000     0          
O        O      0.815375000000     0.160050000000     0.959900000000     0          
O        O      0.823900000000     0.227350000000     0.812250000000     0          
O        O      0.802250000000     0.290400000000     0.778800000000     0          
O        O      0.875000000000     0.280950000000     0.814850000000     0          
O        O      0.940375000000     0.339950000000     0.709900000000     0          
O        O      0.750000000000     0.294000000000     0.705250000000     0          
O        O      0.875000000000     0.375000000000     0.685150000000     0          
O        O      0.926100000000     0.022650000000     0.812250000000     0          
O        O      0.947750000000     0.459600000000     0.778800000000     0          
O        O      0.875000000000     0.469050000000     0.814850000000     0          
O        O      0.809625000000     0.410050000000     0.709900000000     0          
O        O      0.750000000000     0.456000000000     0.705250000000     0          
O        O      0.823900000000     0.272650000000     0.687750000000     0          
O        O      0.802250000000     0.209600000000     0.721200000000     0          
O        O      0.875000000000     0.219050000000     0.685150000000     0          
O        O      0.940375000000     0.160050000000     0.790100000000     0          
O        O      0.750000000000     0.206000000000     0.794750000000     0          
O        O      0.875000000000     0.125000000000     0.814850000000     0          
O        O      0.926100000000     0.477350000000     0.687750000000     0          
O        O      0.947750000000     0.040400000000     0.721200000000     0          
O        O      0.875000000000     0.030950000000     0.685150000000     0          
O        O      0.809625000000     0.089950000000     0.790100000000     0          
O        O      0.750000000000     0.044000000000     0.794750000000     0          
O        O      0.926100000000     0.272650000000     0.687750000000     0          
O        O      0.947750000000     0.209600000000     0.721200000000     0          
O        O      0.809625000000     0.160050000000     0.790100000000     0          
O        O      0.823900000000     0.477350000000     0.687750000000     0          
O        O      0.802250000000     0.040400000000     0.721200000000     0          
O        O      0.940375000000     0.089950000000     0.790100000000     0          
O        O      0.926100000000     0.227350000000     0.812250000000     0          
O        O      0.947750000000     0.290400000000     0.778800000000     0          
O        O      0.809625000000     0.339950000000     0.709900000000     0          
O        O      0.823900000000     0.022650000000     0.812250000000     0          
O        O      0.802250000000     0.459600000000     0.778800000000     0          
O        O      0.940375000000     0.410050000000     0.709900000000     0          
O        O      0.948900000000     0.977350000000     0.062250000000     0          
O        O      0.937500000000     0.530450000000     0.125000000000     0          
O        O      0.927250000000     0.540400000000     0.028800000000     0          
O        O      0.750000000000     0.530950000000     0.064850000000     0          
O        O      0.815375000000     0.589950000000     0.459900000000     0          
O        O      0.875000000000     0.544000000000     0.455250000000     0          
O        O      0.937500000000     0.625000000000     0.375000000000     0          
O        O      0.750000000000     0.625000000000     0.435150000000     0          
O        O      0.801100000000     0.772650000000     0.062250000000     0          
O        O      0.812500000000     0.719550000000     0.125000000000     0          
O        O      0.822750000000     0.709600000000     0.028800000000     0          
O        O      0.750000000000     0.719050000000     0.064850000000     0          
O        O      0.934625000000     0.660050000000     0.459900000000     0          
O        O      0.875000000000     0.706000000000     0.455250000000     0          
O        O      0.812500000000     0.625000000000     0.375000000000     0          
O        O      0.948900000000     0.522650000000     0.437750000000     0          
O        O      0.937500000000     0.969550000000     0.375000000000     0          
O        O      0.927250000000     0.959600000000     0.471200000000     0          
O        O      0.750000000000     0.969050000000     0.435150000000     0          
O        O      0.815375000000     0.910050000000     0.040100000000     0          
O        O      0.875000000000     0.956000000000     0.044750000000     0          
O        O      0.937500000000     0.875000000000     0.125000000000     0          
O        O      0.750000000000     0.875000000000     0.064850000000     0          
O        O      0.801100000000     0.727350000000     0.437750000000     0          
O        O      0.812500000000     0.780450000000     0.375000000000     0          
O        O      0.822750000000     0.790400000000     0.471200000000     0          
O        O      0.750000000000     0.780950000000     0.435150000000     0          
O        O      0.934625000000     0.839950000000     0.040100000000     0          
O        O      0.875000000000     0.794000000000     0.044750000000     0          
O        O      0.812500000000     0.875000000000     0.125000000000     0          
O        O      0.801100000000     0.522650000000     0.437750000000     0          
O        O      0.812500000000     0.969550000000     0.375000000000     0          
O        O      0.822750000000     0.959600000000     0.471200000000     0          
O        O      0.934625000000     0.910050000000     0.040100000000     0          
O        O      0.948900000000     0.727350000000     0.437750000000     0          
O        O      0.937500000000     0.780450000000     0.375000000000     0          
O        O      0.927250000000     0.790400000000     0.471200000000     0          
O        O      0.815375000000     0.839950000000     0.040100000000     0          
O        O      0.801100000000     0.977350000000     0.062250000000     0          
O        O      0.812500000000     0.530450000000     0.125000000000     0          
O        O      0.822750000000     0.540400000000     0.028800000000     0          
O        O      0.934625000000     0.589950000000     0.459900000000     0          
O        O      0.948900000000     0.772650000000     0.062250000000     0          
O        O      0.937500000000     0.719550000000     0.125000000000     0          
O        O      0.927250000000     0.709600000000     0.028800000000     0          
O        O      0.815375000000     0.660050000000     0.459900000000     0          
O        O      0.823900000000     0.727350000000     0.312250000000     0          
O        O      0.802250000000     0.790400000000     0.278800000000     0          
O        O      0.875000000000     0.780950000000     0.314850000000     0          
O        O      0.940375000000     0.839950000000     0.209900000000     0          
O        O      0.750000000000     0.794000000000     0.205250000000     0          
O        O      0.875000000000     0.875000000000     0.185150000000     0          
O        O      0.926100000000     0.522650000000     0.312250000000     0          
O        O      0.947750000000     0.959600000000     0.278800000000     0          
O        O      0.875000000000     0.969050000000     0.314850000000     0          
O        O      0.809625000000     0.910050000000     0.209900000000     0          
O        O      0.750000000000     0.956000000000     0.205250000000     0          
O        O      0.823900000000     0.772650000000     0.187750000000     0          
O        O      0.802250000000     0.709600000000     0.221200000000     0          
O        O      0.875000000000     0.719050000000     0.185150000000     0          
O        O      0.940375000000     0.660050000000     0.290100000000     0          
O        O      0.750000000000     0.706000000000     0.294750000000     0          
O        O      0.875000000000     0.625000000000     0.314850000000     0          
O        O      0.926100000000     0.977350000000     0.187750000000     0          
O        O      0.947750000000     0.540400000000     0.221200000000     0          
O        O      0.875000000000     0.530950000000     0.185150000000     0          
O        O      0.809625000000     0.589950000000     0.290100000000     0          
O        O      0.750000000000     0.544000000000     0.294750000000     0          
O        O      0.926100000000     0.772650000000     0.187750000000     0          
O        O      0.947750000000     0.709600000000     0.221200000000     0          
O        O      0.809625000000     0.660050000000     0.290100000000     0          
O        O      0.823900000000     0.977350000000     0.187750000000     0          
O        O      0.802250000000     0.540400000000     0.221200000000     0          
O        O      0.940375000000     0.589950000000     0.290100000000     0          
O        O      0.926100000000     0.727350000000     0.312250000000     0          
O        O      0.947750000000     0.790400000000     0.278800000000     0          
O        O      0.809625000000     0.839950000000     0.209900000000     0          
O        O      0.823900000000     0.522650000000     0.312250000000     0          
O        O      0.802250000000     0.959600000000     0.278800000000     0          
O        O      0.940375000000     0.910050000000     0.209900000000     0          
O        O      0.948900000000     0.977350000000     0.562250000000     0          
O        O      0.937500000000     0.530450000000     0.625000000000     0          
O        O      0.927250000000     0.540400000000     0.528800000000     0          
O        O      0.750000000000     0.530950000000     0.564850000000     0          
O        O      0.815375000000     0.589950000000     0.959900000000     0          
O        O      0.875000000000     0.544000000000     0.955250000000     0          
O        O      0.937500000000     0.625000000000     0.875000000000     0          
O        O      0.750000000000     0.625000000000     0.935150000000     0          
O        O      0.801100000000     0.772650000000     0.562250000000     0          
O        O      0.812500000000     0.719550000000     0.625000000000     0          
O        O      0.822750000000     0.709600000000     0.528800000000     0          
O        O      0.750000000000     0.719050000000     0.564850000000     0          
O        O      0.934625000000     0.660050000000     0.959900000000     0          
O        O      0.875000000000     0.706000000000     0.955250000000     0          
O        O      0.812500000000     0.625000000000     0.875000000000     0          
O        O      0.948900000000     0.522650000000     0.937750000000     0          
O        O      0.937500000000     0.969550000000     0.875000000000     0          
O        O      0.927250000000     0.959600000000     0.971200000000     0          
O        O      0.750000000000     0.969050000000     0.935150000000     0          
O        O      0.815375000000     0.910050000000     0.540100000000     0          
O        O      0.875000000000     0.956000000000     0.544750000000     0          
O        O      0.937500000000     0.875000000000     0.625000000000     0          
O        O      0.750000000000     0.875000000000     0.564850000000     0          
O        O      0.801100000000     0.727350000000     0.937750000000     0          
O        O      0.812500000000     0.780450000000     0.875000000000     0          
O        O      0.822750000000     0.790400000000     0.971200000000     0          
O        O      0.750000000000     0.780950000000     0.935150000000     0          
O        O      0.934625000000     0.839950000000     0.540100000000     0          
O        O      0.875000000000     0.794000000000     0.544750000000     0          
O        O      0.812500000000     0.875000000000     0.625000000000     0          
O        O      0.801100000000     0.522650000000     0.937750000000     0          
O        O      0.812500000000     0.969550000000     0.875000000000     0          
O        O      0.822750000000     0.959600000000     0.971200000000     0          
O        O      0.934625000000     0.910050000000     0.540100000000     0          
O        O      0.948900000000     0.727350000000     0.937750000000     0          
O        O      0.937500000000     0.780450000000     0.875000000000     0          
O        O      0.927250000000     0.790400000000     0.971200000000     0          
O        O      0.815375000000     0.839950000000     0.540100000000     0          
O        O      0.801100000000     0.977350000000     0.562250000000     0          
O        O      0.812500000000     0.530450000000     0.625000000000     0          
O        O      0.822750000000     0.540400000000     0.528800000000     0          
O        O      0.934625000000     0.589950000000     0.959900000000     0          
O        O      0.948900000000     0.772650000000     0.562250000000     0          
O        O      0.937500000000     0.719550000000     0.625000000000     0          
O        O      0.927250000000     0.709600000000     0.528800000000     0          
O        O      0.815375000000     0.660050000000     0.959900000000     0          
O        O      0.823900000000     0.727350000000     0.812250000000     0          
O        O      0.802250000000     0.790400000000     0.778800000000     0          
O        O      0.875000000000     0.780950000000     0.814850000000     0          
O        O      0.940375000000     0.839950000000     0.709900000000     0          
O        O      0.750000000000     0.794000000000     0.705250000000     0          
O        O      0.875000000000     0.875000000000     0.685150000000     0          
O        O      0.926100000000     0.522650000000     0.812250000000     0          
O        O      0.947750000000     0.959600000000     0.778800000000     0          
O        O      0.875000000000     0.969050000000     0.814850000000     0          
O        O      0.809625000000     0.910050000000     0.709900000000     0          
O        O      0.750000000000     0.956000000000     0.705250000000     0          
O        O      0.823900000000     0.772650000000     0.687750000000     0          
O        O      0.802250000000     0.709600000000     0.721200000000     0          
O        O      0.875000000000     0.719050000000     0.685150000000     0          
O        O      0.940375000000     0.660050000000     0.790100000000     0          
O        O      0.750000000000     0.706000000000     0.794750000000     0          
O        O      0.875000000000     0.625000000000     0.814850000000     0          
O        O      0.926100000000     0.977350000000     0.687750000000     0          
O        O      0.947750000000     0.540400000000     0.721200000000     0          
O        O      0.875000000000     0.530950000000     0.685150000000     0          
O        O      0.809625000000     0.589950000000     0.790100000000     0          
O        O      0.750000000000     0.544000000000     0.794750000000     0          
O        O      0.926100000000     0.772650000000     0.687750000000     0          
O        O      0.947750000000     0.709600000000     0.721200000000     0          
O        O      0.809625000000     0.660050000000     0.790100000000     0          
O        O      0.823900000000     0.977350000000     0.687750000000     0          
O        O      0.802250000000     0.540400000000     0.721200000000     0          
O        O      0.940375000000     0.589950000000     0.790100000000     0          
O        O      0.926100000000     0.727350000000     0.812250000000     0          
O        O      0.947750000000     0.790400000000     0.778800000000     0          
O        O      0.809625000000     0.839950000000     0.709900000000     0          
O        O      0.823900000000     0.522650000000     0.812250000000     0          
O        O      0.802250000000     0.959600000000     0.778800000000     0          
O        O      0.940375000000     0.910050000000     0.709900000000     0          


