data_zeolite

_audit_creation_method RASPA-1.0
_audit_creation_date 2021-6-7
_audit_author_name ''

_cell_length_a    30.1851
_cell_length_b    29.163
_cell_length_c    36.2549
_cell_angle_alpha 90
_cell_angle_beta  90
_cell_angle_gamma 90
_cell_volume      31914.8

_symmetry_cell_setting          orthorhombic
_symmetry_space_group_name_Hall 'P 1'
_symmetry_space_group_name_H-M  'P 1'
_symmetry_Int_Tables_number     1

_symmetry_equiv_pos_as_xyz 'x,y,z'

loop_
_atom_site_label
_atom_site_type_symbol
_atom_site_fract_x
_atom_site_fract_y
_atom_site_fract_z
_atom_site_charge
T        Si     0.176415000000     0.453870000000     0.082245000000     0          
T        Si     0.198727500000     0.263060000000     0.042010000000     0          
T        Si     0.176360000000     0.366120000000     0.032095000000     0          
T        Si     0.125000000000     0.117690000000     0.028640000000     0          
T        Si     0.125000000000     0.205030000000     0.081275000000     0          
T        Si     0.125000000000     0.012970000000     0.043055000000     0          
O        O      0.189660000000     0.316820000000     0.048700000000     0          
O        O      0.043645000000     0.492220000000     0.062310000000     0          
O        O      0.168525000000     0.233540000000     0.069845000000     0          
O        O      0.168635000000     0.123050000000     0.003535000000     0          
O        O      0.184497500000     0.404910000000     0.062920000000     0          
O        O      0.125000000000     0.067860000000     0.047760000000     0          
O        O      0.125000000000     0.156470000000     0.060190000000     0          
O        O      0.000000000000     0.251950000000     0.050335000000     0          
O        O      0.125000000000     0.467900000000     0.079030000000     0          
O        O      0.125000000000     0.365770000000     0.020185000000     0          
O        O      0.125000000000     0.195810000000     0.125000000000     0          
O        O      0.190407500000     0.450600000000     0.125000000000     0          
O        O      0.187500000000     0.250000000000     0.000000000000     0          
O        O      0.125000000000     0.000000000000     0.000000000000     0          
T        Si     0.073585000000     0.546130000000     0.332245000000     0          
T        Si     0.051272500000     0.736940000000     0.292010000000     0          
T        Si     0.073640000000     0.633880000000     0.282095000000     0          
T        Si     0.125000000000     0.882310000000     0.278640000000     0          
T        Si     0.125000000000     0.794970000000     0.331275000000     0          
T        Si     0.125000000000     0.987030000000     0.293055000000     0          
O        O      0.060340000000     0.683180000000     0.298700000000     0          
O        O      0.206355000000     0.507780000000     0.312310000000     0          
O        O      0.081475000000     0.766460000000     0.319845000000     0          
O        O      0.081365000000     0.876950000000     0.253535000000     0          
O        O      0.065502500000     0.595090000000     0.312920000000     0          
O        O      0.125000000000     0.932140000000     0.297760000000     0          
O        O      0.125000000000     0.843530000000     0.310190000000     0          
O        O      0.000000000000     0.748050000000     0.300335000000     0          
O        O      0.125000000000     0.532100000000     0.329030000000     0          
O        O      0.125000000000     0.634230000000     0.270185000000     0          
O        O      0.125000000000     0.804190000000     0.375000000000     0          
O        O      0.059592500000     0.549400000000     0.375000000000     0          
O        O      0.062500000000     0.750000000000     0.250000000000     0          
O        O      0.125000000000     0.000000000000     0.250000000000     0          
T        Si     0.176415000000     0.546130000000     0.417755000000     0          
T        Si     0.198727500000     0.736940000000     0.457990000000     0          
T        Si     0.176360000000     0.633880000000     0.467905000000     0          
T        Si     0.125000000000     0.882310000000     0.471360000000     0          
T        Si     0.125000000000     0.794970000000     0.418725000000     0          
T        Si     0.125000000000     0.987030000000     0.456945000000     0          
O        O      0.189660000000     0.683180000000     0.451300000000     0          
O        O      0.043645000000     0.507780000000     0.437690000000     0          
O        O      0.168525000000     0.766460000000     0.430155000000     0          
O        O      0.168635000000     0.876950000000     0.496465000000     0          
O        O      0.184497500000     0.595090000000     0.437080000000     0          
O        O      0.125000000000     0.932140000000     0.452240000000     0          
O        O      0.125000000000     0.843530000000     0.439810000000     0          
O        O      0.000000000000     0.748050000000     0.449665000000     0          
O        O      0.125000000000     0.532100000000     0.420970000000     0          
O        O      0.125000000000     0.634230000000     0.479815000000     0          
O        O      0.190407500000     0.549400000000     0.375000000000     0          
O        O      0.187500000000     0.750000000000     0.000000000000     0          
T        Si     0.073585000000     0.453870000000     0.167755000000     0          
T        Si     0.051272500000     0.263060000000     0.207990000000     0          
T        Si     0.073640000000     0.366120000000     0.217905000000     0          
T        Si     0.125000000000     0.117690000000     0.221360000000     0          
T        Si     0.125000000000     0.205030000000     0.168725000000     0          
T        Si     0.125000000000     0.012970000000     0.206945000000     0          
O        O      0.060340000000     0.316820000000     0.201300000000     0          
O        O      0.206355000000     0.492220000000     0.187690000000     0          
O        O      0.081475000000     0.233540000000     0.180155000000     0          
O        O      0.081365000000     0.123050000000     0.246465000000     0          
O        O      0.065502500000     0.404910000000     0.187080000000     0          
O        O      0.125000000000     0.067860000000     0.202240000000     0          
O        O      0.125000000000     0.156470000000     0.189810000000     0          
O        O      0.000000000000     0.251950000000     0.199665000000     0          
O        O      0.125000000000     0.467900000000     0.170970000000     0          
O        O      0.125000000000     0.365770000000     0.229815000000     0          
O        O      0.059592500000     0.450600000000     0.125000000000     0          
O        O      0.062500000000     0.250000000000     0.250000000000     0          
T        Si     0.073585000000     0.546130000000     0.417755000000     0          
T        Si     0.051272500000     0.736940000000     0.457990000000     0          
T        Si     0.073640000000     0.633880000000     0.467905000000     0          
O        O      0.060340000000     0.683180000000     0.451300000000     0          
O        O      0.206355000000     0.507780000000     0.437690000000     0          
O        O      0.081475000000     0.766460000000     0.430155000000     0          
O        O      0.081365000000     0.876950000000     0.496465000000     0          
O        O      0.065502500000     0.595090000000     0.437080000000     0          
O        O      0.062500000000     0.750000000000     0.000000000000     0          
T        Si     0.176415000000     0.453870000000     0.167755000000     0          
T        Si     0.198727500000     0.263060000000     0.207990000000     0          
T        Si     0.176360000000     0.366120000000     0.217905000000     0          
O        O      0.189660000000     0.316820000000     0.201300000000     0          
O        O      0.043645000000     0.492220000000     0.187690000000     0          
O        O      0.168525000000     0.233540000000     0.180155000000     0          
O        O      0.168635000000     0.123050000000     0.246465000000     0          
O        O      0.184497500000     0.404910000000     0.187080000000     0          
O        O      0.187500000000     0.250000000000     0.250000000000     0          
T        Si     0.073585000000     0.453870000000     0.082245000000     0          
T        Si     0.051272500000     0.263060000000     0.042010000000     0          
T        Si     0.073640000000     0.366120000000     0.032095000000     0          
O        O      0.060340000000     0.316820000000     0.048700000000     0          
O        O      0.206355000000     0.492220000000     0.062310000000     0          
O        O      0.081475000000     0.233540000000     0.069845000000     0          
O        O      0.081365000000     0.123050000000     0.003535000000     0          
O        O      0.065502500000     0.404910000000     0.062920000000     0          
O        O      0.062500000000     0.250000000000     0.000000000000     0          
T        Si     0.176415000000     0.546130000000     0.332245000000     0          
T        Si     0.198727500000     0.736940000000     0.292010000000     0          
T        Si     0.176360000000     0.633880000000     0.282095000000     0          
O        O      0.189660000000     0.683180000000     0.298700000000     0          
O        O      0.043645000000     0.507780000000     0.312310000000     0          
O        O      0.168525000000     0.766460000000     0.319845000000     0          
O        O      0.168635000000     0.876950000000     0.253535000000     0          
O        O      0.184497500000     0.595090000000     0.312920000000     0          
O        O      0.187500000000     0.750000000000     0.250000000000     0          
T        Si     0.051415000000     0.953870000000     0.082245000000     0          
T        Si     0.073727500000     0.763060000000     0.042010000000     0          
T        Si     0.051360000000     0.866120000000     0.032095000000     0          
T        Si     0.000000000000     0.617690000000     0.028640000000     0          
T        Si     0.000000000000     0.705030000000     0.081275000000     0          
T        Si     0.000000000000     0.512970000000     0.043055000000     0          
O        O      0.064660000000     0.816820000000     0.048700000000     0          
O        O      0.168645000000     0.992220000000     0.062310000000     0          
O        O      0.043525000000     0.733540000000     0.069845000000     0          
O        O      0.043635000000     0.623050000000     0.003535000000     0          
O        O      0.059497500000     0.904910000000     0.062920000000     0          
O        O      0.000000000000     0.567860000000     0.047760000000     0          
O        O      0.000000000000     0.656470000000     0.060190000000     0          
O        O      0.125000000000     0.751950000000     0.050335000000     0          
O        O      0.000000000000     0.967900000000     0.079030000000     0          
O        O      0.000000000000     0.865770000000     0.020185000000     0          
O        O      0.000000000000     0.695810000000     0.125000000000     0          
O        O      0.065407500000     0.950600000000     0.125000000000     0          
O        O      0.000000000000     0.500000000000     0.000000000000     0          
T        Si     0.198585000000     0.046130000000     0.332245000000     0          
T        Si     0.176272500000     0.236940000000     0.292010000000     0          
T        Si     0.198640000000     0.133880000000     0.282095000000     0          
T        Si     0.000000000000     0.382310000000     0.278640000000     0          
T        Si     0.000000000000     0.294970000000     0.331275000000     0          
T        Si     0.000000000000     0.487030000000     0.293055000000     0          
O        O      0.185340000000     0.183180000000     0.298700000000     0          
O        O      0.081355000000     0.007780000000     0.312310000000     0          
O        O      0.206475000000     0.266460000000     0.319845000000     0          
O        O      0.206365000000     0.376950000000     0.253535000000     0          
O        O      0.190502500000     0.095090000000     0.312920000000     0          
O        O      0.000000000000     0.432140000000     0.297760000000     0          
O        O      0.000000000000     0.343530000000     0.310190000000     0          
O        O      0.125000000000     0.248050000000     0.300335000000     0          
O        O      0.000000000000     0.032100000000     0.329030000000     0          
O        O      0.000000000000     0.134230000000     0.270185000000     0          
O        O      0.000000000000     0.304190000000     0.375000000000     0          
O        O      0.184592500000     0.049400000000     0.375000000000     0          
O        O      0.000000000000     0.500000000000     0.250000000000     0          
T        Si     0.051415000000     0.046130000000     0.417755000000     0          
T        Si     0.073727500000     0.236940000000     0.457990000000     0          
T        Si     0.051360000000     0.133880000000     0.467905000000     0          
T        Si     0.000000000000     0.382310000000     0.471360000000     0          
T        Si     0.000000000000     0.294970000000     0.418725000000     0          
T        Si     0.000000000000     0.487030000000     0.456945000000     0          
O        O      0.064660000000     0.183180000000     0.451300000000     0          
O        O      0.168645000000     0.007780000000     0.437690000000     0          
O        O      0.043525000000     0.266460000000     0.430155000000     0          
O        O      0.043635000000     0.376950000000     0.496465000000     0          
O        O      0.059497500000     0.095090000000     0.437080000000     0          
O        O      0.000000000000     0.432140000000     0.452240000000     0          
O        O      0.000000000000     0.343530000000     0.439810000000     0          
O        O      0.125000000000     0.248050000000     0.449665000000     0          
O        O      0.000000000000     0.032100000000     0.420970000000     0          
O        O      0.000000000000     0.134230000000     0.479815000000     0          
O        O      0.065407500000     0.049400000000     0.375000000000     0          
T        Si     0.198585000000     0.953870000000     0.167755000000     0          
T        Si     0.176272500000     0.763060000000     0.207990000000     0          
T        Si     0.198640000000     0.866120000000     0.217905000000     0          
T        Si     0.000000000000     0.617690000000     0.221360000000     0          
T        Si     0.000000000000     0.705030000000     0.168725000000     0          
T        Si     0.000000000000     0.512970000000     0.206945000000     0          
O        O      0.185340000000     0.816820000000     0.201300000000     0          
O        O      0.081355000000     0.992220000000     0.187690000000     0          
O        O      0.206475000000     0.733540000000     0.180155000000     0          
O        O      0.206365000000     0.623050000000     0.246465000000     0          
O        O      0.190502500000     0.904910000000     0.187080000000     0          
O        O      0.000000000000     0.567860000000     0.202240000000     0          
O        O      0.000000000000     0.656470000000     0.189810000000     0          
O        O      0.125000000000     0.751950000000     0.199665000000     0          
O        O      0.000000000000     0.967900000000     0.170970000000     0          
O        O      0.000000000000     0.865770000000     0.229815000000     0          
O        O      0.184592500000     0.950600000000     0.125000000000     0          
T        Si     0.198585000000     0.046130000000     0.417755000000     0          
T        Si     0.176272500000     0.236940000000     0.457990000000     0          
T        Si     0.198640000000     0.133880000000     0.467905000000     0          
O        O      0.185340000000     0.183180000000     0.451300000000     0          
O        O      0.081355000000     0.007780000000     0.437690000000     0          
O        O      0.206475000000     0.266460000000     0.430155000000     0          
O        O      0.206365000000     0.376950000000     0.496465000000     0          
O        O      0.190502500000     0.095090000000     0.437080000000     0          
T        Si     0.051415000000     0.953870000000     0.167755000000     0          
T        Si     0.073727500000     0.763060000000     0.207990000000     0          
T        Si     0.051360000000     0.866120000000     0.217905000000     0          
O        O      0.064660000000     0.816820000000     0.201300000000     0          
O        O      0.168645000000     0.992220000000     0.187690000000     0          
O        O      0.043525000000     0.733540000000     0.180155000000     0          
O        O      0.043635000000     0.623050000000     0.246465000000     0          
O        O      0.059497500000     0.904910000000     0.187080000000     0          
T        Si     0.198585000000     0.953870000000     0.082245000000     0          
T        Si     0.176272500000     0.763060000000     0.042010000000     0          
T        Si     0.198640000000     0.866120000000     0.032095000000     0          
O        O      0.185340000000     0.816820000000     0.048700000000     0          
O        O      0.081355000000     0.992220000000     0.062310000000     0          
O        O      0.206475000000     0.733540000000     0.069845000000     0          
O        O      0.206365000000     0.623050000000     0.003535000000     0          
O        O      0.190502500000     0.904910000000     0.062920000000     0          
T        Si     0.051415000000     0.046130000000     0.332245000000     0          
T        Si     0.073727500000     0.236940000000     0.292010000000     0          
T        Si     0.051360000000     0.133880000000     0.282095000000     0          
O        O      0.064660000000     0.183180000000     0.298700000000     0          
O        O      0.168645000000     0.007780000000     0.312310000000     0          
O        O      0.043525000000     0.266460000000     0.319845000000     0          
O        O      0.043635000000     0.376950000000     0.253535000000     0          
O        O      0.059497500000     0.095090000000     0.312920000000     0          
T        Si     0.176415000000     0.453870000000     0.582245000000     0          
T        Si     0.198727500000     0.263060000000     0.542010000000     0          
T        Si     0.176360000000     0.366120000000     0.532095000000     0          
T        Si     0.125000000000     0.117690000000     0.528640000000     0          
T        Si     0.125000000000     0.205030000000     0.581275000000     0          
T        Si     0.125000000000     0.012970000000     0.543055000000     0          
O        O      0.189660000000     0.316820000000     0.548700000000     0          
O        O      0.043645000000     0.492220000000     0.562310000000     0          
O        O      0.168525000000     0.233540000000     0.569845000000     0          
O        O      0.168635000000     0.123050000000     0.503535000000     0          
O        O      0.184497500000     0.404910000000     0.562920000000     0          
O        O      0.125000000000     0.067860000000     0.547760000000     0          
O        O      0.125000000000     0.156470000000     0.560190000000     0          
O        O      0.000000000000     0.251950000000     0.550335000000     0          
O        O      0.125000000000     0.467900000000     0.579030000000     0          
O        O      0.125000000000     0.365770000000     0.520185000000     0          
O        O      0.125000000000     0.195810000000     0.625000000000     0          
O        O      0.190407500000     0.450600000000     0.625000000000     0          
O        O      0.187500000000     0.250000000000     0.500000000000     0          
O        O      0.125000000000     0.000000000000     0.500000000000     0          
T        Si     0.073585000000     0.546130000000     0.832245000000     0          
T        Si     0.051272500000     0.736940000000     0.792010000000     0          
T        Si     0.073640000000     0.633880000000     0.782095000000     0          
T        Si     0.125000000000     0.882310000000     0.778640000000     0          
T        Si     0.125000000000     0.794970000000     0.831275000000     0          
T        Si     0.125000000000     0.987030000000     0.793055000000     0          
O        O      0.060340000000     0.683180000000     0.798700000000     0          
O        O      0.206355000000     0.507780000000     0.812310000000     0          
O        O      0.081475000000     0.766460000000     0.819845000000     0          
O        O      0.081365000000     0.876950000000     0.753535000000     0          
O        O      0.065502500000     0.595090000000     0.812920000000     0          
O        O      0.125000000000     0.932140000000     0.797760000000     0          
O        O      0.125000000000     0.843530000000     0.810190000000     0          
O        O      0.000000000000     0.748050000000     0.800335000000     0          
O        O      0.125000000000     0.532100000000     0.829030000000     0          
O        O      0.125000000000     0.634230000000     0.770185000000     0          
O        O      0.125000000000     0.804190000000     0.875000000000     0          
O        O      0.059592500000     0.549400000000     0.875000000000     0          
O        O      0.062500000000     0.750000000000     0.750000000000     0          
O        O      0.125000000000     0.000000000000     0.750000000000     0          
T        Si     0.176415000000     0.546130000000     0.917755000000     0          
T        Si     0.198727500000     0.736940000000     0.957990000000     0          
T        Si     0.176360000000     0.633880000000     0.967905000000     0          
T        Si     0.125000000000     0.882310000000     0.971360000000     0          
T        Si     0.125000000000     0.794970000000     0.918725000000     0          
T        Si     0.125000000000     0.987030000000     0.956945000000     0          
O        O      0.189660000000     0.683180000000     0.951300000000     0          
O        O      0.043645000000     0.507780000000     0.937690000000     0          
O        O      0.168525000000     0.766460000000     0.930155000000     0          
O        O      0.168635000000     0.876950000000     0.996465000000     0          
O        O      0.184497500000     0.595090000000     0.937080000000     0          
O        O      0.125000000000     0.932140000000     0.952240000000     0          
O        O      0.125000000000     0.843530000000     0.939810000000     0          
O        O      0.000000000000     0.748050000000     0.949665000000     0          
O        O      0.125000000000     0.532100000000     0.920970000000     0          
O        O      0.125000000000     0.634230000000     0.979815000000     0          
O        O      0.190407500000     0.549400000000     0.875000000000     0          
O        O      0.187500000000     0.750000000000     0.500000000000     0          
T        Si     0.073585000000     0.453870000000     0.667755000000     0          
T        Si     0.051272500000     0.263060000000     0.707990000000     0          
T        Si     0.073640000000     0.366120000000     0.717905000000     0          
T        Si     0.125000000000     0.117690000000     0.721360000000     0          
T        Si     0.125000000000     0.205030000000     0.668725000000     0          
T        Si     0.125000000000     0.012970000000     0.706945000000     0          
O        O      0.060340000000     0.316820000000     0.701300000000     0          
O        O      0.206355000000     0.492220000000     0.687690000000     0          
O        O      0.081475000000     0.233540000000     0.680155000000     0          
O        O      0.081365000000     0.123050000000     0.746465000000     0          
O        O      0.065502500000     0.404910000000     0.687080000000     0          
O        O      0.125000000000     0.067860000000     0.702240000000     0          
O        O      0.125000000000     0.156470000000     0.689810000000     0          
O        O      0.000000000000     0.251950000000     0.699665000000     0          
O        O      0.125000000000     0.467900000000     0.670970000000     0          
O        O      0.125000000000     0.365770000000     0.729815000000     0          
O        O      0.059592500000     0.450600000000     0.625000000000     0          
O        O      0.062500000000     0.250000000000     0.750000000000     0          
T        Si     0.073585000000     0.546130000000     0.917755000000     0          
T        Si     0.051272500000     0.736940000000     0.957990000000     0          
T        Si     0.073640000000     0.633880000000     0.967905000000     0          
O        O      0.060340000000     0.683180000000     0.951300000000     0          
O        O      0.206355000000     0.507780000000     0.937690000000     0          
O        O      0.081475000000     0.766460000000     0.930155000000     0          
O        O      0.081365000000     0.876950000000     0.996465000000     0          
O        O      0.065502500000     0.595090000000     0.937080000000     0          
O        O      0.062500000000     0.750000000000     0.500000000000     0          
T        Si     0.176415000000     0.453870000000     0.667755000000     0          
T        Si     0.198727500000     0.263060000000     0.707990000000     0          
T        Si     0.176360000000     0.366120000000     0.717905000000     0          
O        O      0.189660000000     0.316820000000     0.701300000000     0          
O        O      0.043645000000     0.492220000000     0.687690000000     0          
O        O      0.168525000000     0.233540000000     0.680155000000     0          
O        O      0.168635000000     0.123050000000     0.746465000000     0          
O        O      0.184497500000     0.404910000000     0.687080000000     0          
O        O      0.187500000000     0.250000000000     0.750000000000     0          
T        Si     0.073585000000     0.453870000000     0.582245000000     0          
T        Si     0.051272500000     0.263060000000     0.542010000000     0          
T        Si     0.073640000000     0.366120000000     0.532095000000     0          
O        O      0.060340000000     0.316820000000     0.548700000000     0          
O        O      0.206355000000     0.492220000000     0.562310000000     0          
O        O      0.081475000000     0.233540000000     0.569845000000     0          
O        O      0.081365000000     0.123050000000     0.503535000000     0          
O        O      0.065502500000     0.404910000000     0.562920000000     0          
O        O      0.062500000000     0.250000000000     0.500000000000     0          
T        Si     0.176415000000     0.546130000000     0.832245000000     0          
T        Si     0.198727500000     0.736940000000     0.792010000000     0          
T        Si     0.176360000000     0.633880000000     0.782095000000     0          
O        O      0.189660000000     0.683180000000     0.798700000000     0          
O        O      0.043645000000     0.507780000000     0.812310000000     0          
O        O      0.168525000000     0.766460000000     0.819845000000     0          
O        O      0.168635000000     0.876950000000     0.753535000000     0          
O        O      0.184497500000     0.595090000000     0.812920000000     0          
O        O      0.187500000000     0.750000000000     0.750000000000     0          
T        Si     0.051415000000     0.953870000000     0.582245000000     0          
T        Si     0.073727500000     0.763060000000     0.542010000000     0          
T        Si     0.051360000000     0.866120000000     0.532095000000     0          
T        Si     0.000000000000     0.617690000000     0.528640000000     0          
T        Si     0.000000000000     0.705030000000     0.581275000000     0          
T        Si     0.000000000000     0.512970000000     0.543055000000     0          
O        O      0.064660000000     0.816820000000     0.548700000000     0          
O        O      0.168645000000     0.992220000000     0.562310000000     0          
O        O      0.043525000000     0.733540000000     0.569845000000     0          
O        O      0.043635000000     0.623050000000     0.503535000000     0          
O        O      0.059497500000     0.904910000000     0.562920000000     0          
O        O      0.000000000000     0.567860000000     0.547760000000     0          
O        O      0.000000000000     0.656470000000     0.560190000000     0          
O        O      0.125000000000     0.751950000000     0.550335000000     0          
O        O      0.000000000000     0.967900000000     0.579030000000     0          
O        O      0.000000000000     0.865770000000     0.520185000000     0          
O        O      0.000000000000     0.695810000000     0.625000000000     0          
O        O      0.065407500000     0.950600000000     0.625000000000     0          
O        O      0.000000000000     0.500000000000     0.500000000000     0          
T        Si     0.198585000000     0.046130000000     0.832245000000     0          
T        Si     0.176272500000     0.236940000000     0.792010000000     0          
T        Si     0.198640000000     0.133880000000     0.782095000000     0          
T        Si     0.000000000000     0.382310000000     0.778640000000     0          
T        Si     0.000000000000     0.294970000000     0.831275000000     0          
T        Si     0.000000000000     0.487030000000     0.793055000000     0          
O        O      0.185340000000     0.183180000000     0.798700000000     0          
O        O      0.081355000000     0.007780000000     0.812310000000     0          
O        O      0.206475000000     0.266460000000     0.819845000000     0          
O        O      0.206365000000     0.376950000000     0.753535000000     0          
O        O      0.190502500000     0.095090000000     0.812920000000     0          
O        O      0.000000000000     0.432140000000     0.797760000000     0          
O        O      0.000000000000     0.343530000000     0.810190000000     0          
O        O      0.125000000000     0.248050000000     0.800335000000     0          
O        O      0.000000000000     0.032100000000     0.829030000000     0          
O        O      0.000000000000     0.134230000000     0.770185000000     0          
O        O      0.000000000000     0.304190000000     0.875000000000     0          
O        O      0.184592500000     0.049400000000     0.875000000000     0          
O        O      0.000000000000     0.500000000000     0.750000000000     0          
T        Si     0.051415000000     0.046130000000     0.917755000000     0          
T        Si     0.073727500000     0.236940000000     0.957990000000     0          
T        Si     0.051360000000     0.133880000000     0.967905000000     0          
T        Si     0.000000000000     0.382310000000     0.971360000000     0          
T        Si     0.000000000000     0.294970000000     0.918725000000     0          
T        Si     0.000000000000     0.487030000000     0.956945000000     0          
O        O      0.064660000000     0.183180000000     0.951300000000     0          
O        O      0.168645000000     0.007780000000     0.937690000000     0          
O        O      0.043525000000     0.266460000000     0.930155000000     0          
O        O      0.043635000000     0.376950000000     0.996465000000     0          
O        O      0.059497500000     0.095090000000     0.937080000000     0          
O        O      0.000000000000     0.432140000000     0.952240000000     0          
O        O      0.000000000000     0.343530000000     0.939810000000     0          
O        O      0.125000000000     0.248050000000     0.949665000000     0          
O        O      0.000000000000     0.032100000000     0.920970000000     0          
O        O      0.000000000000     0.134230000000     0.979815000000     0          
O        O      0.065407500000     0.049400000000     0.875000000000     0          
T        Si     0.198585000000     0.953870000000     0.667755000000     0          
T        Si     0.176272500000     0.763060000000     0.707990000000     0          
T        Si     0.198640000000     0.866120000000     0.717905000000     0          
T        Si     0.000000000000     0.617690000000     0.721360000000     0          
T        Si     0.000000000000     0.705030000000     0.668725000000     0          
T        Si     0.000000000000     0.512970000000     0.706945000000     0          
O        O      0.185340000000     0.816820000000     0.701300000000     0          
O        O      0.081355000000     0.992220000000     0.687690000000     0          
O        O      0.206475000000     0.733540000000     0.680155000000     0          
O        O      0.206365000000     0.623050000000     0.746465000000     0          
O        O      0.190502500000     0.904910000000     0.687080000000     0          
O        O      0.000000000000     0.567860000000     0.702240000000     0          
O        O      0.000000000000     0.656470000000     0.689810000000     0          
O        O      0.125000000000     0.751950000000     0.699665000000     0          
O        O      0.000000000000     0.967900000000     0.670970000000     0          
O        O      0.000000000000     0.865770000000     0.729815000000     0          
O        O      0.184592500000     0.950600000000     0.625000000000     0          
T        Si     0.198585000000     0.046130000000     0.917755000000     0          
T        Si     0.176272500000     0.236940000000     0.957990000000     0          
T        Si     0.198640000000     0.133880000000     0.967905000000     0          
O        O      0.185340000000     0.183180000000     0.951300000000     0          
O        O      0.081355000000     0.007780000000     0.937690000000     0          
O        O      0.206475000000     0.266460000000     0.930155000000     0          
O        O      0.206365000000     0.376950000000     0.996465000000     0          
O        O      0.190502500000     0.095090000000     0.937080000000     0          
T        Si     0.051415000000     0.953870000000     0.667755000000     0          
T        Si     0.073727500000     0.763060000000     0.707990000000     0          
T        Si     0.051360000000     0.866120000000     0.717905000000     0          
O        O      0.064660000000     0.816820000000     0.701300000000     0          
O        O      0.168645000000     0.992220000000     0.687690000000     0          
O        O      0.043525000000     0.733540000000     0.680155000000     0          
O        O      0.043635000000     0.623050000000     0.746465000000     0          
O        O      0.059497500000     0.904910000000     0.687080000000     0          
T        Si     0.198585000000     0.953870000000     0.582245000000     0          
T        Si     0.176272500000     0.763060000000     0.542010000000     0          
T        Si     0.198640000000     0.866120000000     0.532095000000     0          
O        O      0.185340000000     0.816820000000     0.548700000000     0          
O        O      0.081355000000     0.992220000000     0.562310000000     0          
O        O      0.206475000000     0.733540000000     0.569845000000     0          
O        O      0.206365000000     0.623050000000     0.503535000000     0          
O        O      0.190502500000     0.904910000000     0.562920000000     0          
T        Si     0.051415000000     0.046130000000     0.832245000000     0          
T        Si     0.073727500000     0.236940000000     0.792010000000     0          
T        Si     0.051360000000     0.133880000000     0.782095000000     0          
O        O      0.064660000000     0.183180000000     0.798700000000     0          
O        O      0.168645000000     0.007780000000     0.812310000000     0          
O        O      0.043525000000     0.266460000000     0.819845000000     0          
O        O      0.043635000000     0.376950000000     0.753535000000     0          
O        O      0.059497500000     0.095090000000     0.812920000000     0          
T        Si     0.426415000000     0.453870000000     0.082245000000     0          
T        Si     0.448727500000     0.263060000000     0.042010000000     0          
T        Si     0.426360000000     0.366120000000     0.032095000000     0          
T        Si     0.375000000000     0.117690000000     0.028640000000     0          
T        Si     0.375000000000     0.205030000000     0.081275000000     0          
T        Si     0.375000000000     0.012970000000     0.043055000000     0          
O        O      0.439660000000     0.316820000000     0.048700000000     0          
O        O      0.293645000000     0.492220000000     0.062310000000     0          
O        O      0.418525000000     0.233540000000     0.069845000000     0          
O        O      0.418635000000     0.123050000000     0.003535000000     0          
O        O      0.434497500000     0.404910000000     0.062920000000     0          
O        O      0.375000000000     0.067860000000     0.047760000000     0          
O        O      0.375000000000     0.156470000000     0.060190000000     0          
O        O      0.250000000000     0.251950000000     0.050335000000     0          
O        O      0.375000000000     0.467900000000     0.079030000000     0          
O        O      0.375000000000     0.365770000000     0.020185000000     0          
O        O      0.375000000000     0.195810000000     0.125000000000     0          
O        O      0.440407500000     0.450600000000     0.125000000000     0          
O        O      0.437500000000     0.250000000000     0.000000000000     0          
O        O      0.375000000000     0.000000000000     0.000000000000     0          
T        Si     0.323585000000     0.546130000000     0.332245000000     0          
T        Si     0.301272500000     0.736940000000     0.292010000000     0          
T        Si     0.323640000000     0.633880000000     0.282095000000     0          
T        Si     0.375000000000     0.882310000000     0.278640000000     0          
T        Si     0.375000000000     0.794970000000     0.331275000000     0          
T        Si     0.375000000000     0.987030000000     0.293055000000     0          
O        O      0.310340000000     0.683180000000     0.298700000000     0          
O        O      0.456355000000     0.507780000000     0.312310000000     0          
O        O      0.331475000000     0.766460000000     0.319845000000     0          
O        O      0.331365000000     0.876950000000     0.253535000000     0          
O        O      0.315502500000     0.595090000000     0.312920000000     0          
O        O      0.375000000000     0.932140000000     0.297760000000     0          
O        O      0.375000000000     0.843530000000     0.310190000000     0          
O        O      0.250000000000     0.748050000000     0.300335000000     0          
O        O      0.375000000000     0.532100000000     0.329030000000     0          
O        O      0.375000000000     0.634230000000     0.270185000000     0          
O        O      0.375000000000     0.804190000000     0.375000000000     0          
O        O      0.309592500000     0.549400000000     0.375000000000     0          
O        O      0.312500000000     0.750000000000     0.250000000000     0          
O        O      0.375000000000     0.000000000000     0.250000000000     0          
T        Si     0.426415000000     0.546130000000     0.417755000000     0          
T        Si     0.448727500000     0.736940000000     0.457990000000     0          
T        Si     0.426360000000     0.633880000000     0.467905000000     0          
T        Si     0.375000000000     0.882310000000     0.471360000000     0          
T        Si     0.375000000000     0.794970000000     0.418725000000     0          
T        Si     0.375000000000     0.987030000000     0.456945000000     0          
O        O      0.439660000000     0.683180000000     0.451300000000     0          
O        O      0.293645000000     0.507780000000     0.437690000000     0          
O        O      0.418525000000     0.766460000000     0.430155000000     0          
O        O      0.418635000000     0.876950000000     0.496465000000     0          
O        O      0.434497500000     0.595090000000     0.437080000000     0          
O        O      0.375000000000     0.932140000000     0.452240000000     0          
O        O      0.375000000000     0.843530000000     0.439810000000     0          
O        O      0.250000000000     0.748050000000     0.449665000000     0          
O        O      0.375000000000     0.532100000000     0.420970000000     0          
O        O      0.375000000000     0.634230000000     0.479815000000     0          
O        O      0.440407500000     0.549400000000     0.375000000000     0          
O        O      0.437500000000     0.750000000000     0.000000000000     0          
T        Si     0.323585000000     0.453870000000     0.167755000000     0          
T        Si     0.301272500000     0.263060000000     0.207990000000     0          
T        Si     0.323640000000     0.366120000000     0.217905000000     0          
T        Si     0.375000000000     0.117690000000     0.221360000000     0          
T        Si     0.375000000000     0.205030000000     0.168725000000     0          
T        Si     0.375000000000     0.012970000000     0.206945000000     0          
O        O      0.310340000000     0.316820000000     0.201300000000     0          
O        O      0.456355000000     0.492220000000     0.187690000000     0          
O        O      0.331475000000     0.233540000000     0.180155000000     0          
O        O      0.331365000000     0.123050000000     0.246465000000     0          
O        O      0.315502500000     0.404910000000     0.187080000000     0          
O        O      0.375000000000     0.067860000000     0.202240000000     0          
O        O      0.375000000000     0.156470000000     0.189810000000     0          
O        O      0.250000000000     0.251950000000     0.199665000000     0          
O        O      0.375000000000     0.467900000000     0.170970000000     0          
O        O      0.375000000000     0.365770000000     0.229815000000     0          
O        O      0.309592500000     0.450600000000     0.125000000000     0          
O        O      0.312500000000     0.250000000000     0.250000000000     0          
T        Si     0.323585000000     0.546130000000     0.417755000000     0          
T        Si     0.301272500000     0.736940000000     0.457990000000     0          
T        Si     0.323640000000     0.633880000000     0.467905000000     0          
O        O      0.310340000000     0.683180000000     0.451300000000     0          
O        O      0.456355000000     0.507780000000     0.437690000000     0          
O        O      0.331475000000     0.766460000000     0.430155000000     0          
O        O      0.331365000000     0.876950000000     0.496465000000     0          
O        O      0.315502500000     0.595090000000     0.437080000000     0          
O        O      0.312500000000     0.750000000000     0.000000000000     0          
T        Si     0.426415000000     0.453870000000     0.167755000000     0          
T        Si     0.448727500000     0.263060000000     0.207990000000     0          
T        Si     0.426360000000     0.366120000000     0.217905000000     0          
O        O      0.439660000000     0.316820000000     0.201300000000     0          
O        O      0.293645000000     0.492220000000     0.187690000000     0          
O        O      0.418525000000     0.233540000000     0.180155000000     0          
O        O      0.418635000000     0.123050000000     0.246465000000     0          
O        O      0.434497500000     0.404910000000     0.187080000000     0          
O        O      0.437500000000     0.250000000000     0.250000000000     0          
T        Si     0.323585000000     0.453870000000     0.082245000000     0          
T        Si     0.301272500000     0.263060000000     0.042010000000     0          
T        Si     0.323640000000     0.366120000000     0.032095000000     0          
O        O      0.310340000000     0.316820000000     0.048700000000     0          
O        O      0.456355000000     0.492220000000     0.062310000000     0          
O        O      0.331475000000     0.233540000000     0.069845000000     0          
O        O      0.331365000000     0.123050000000     0.003535000000     0          
O        O      0.315502500000     0.404910000000     0.062920000000     0          
O        O      0.312500000000     0.250000000000     0.000000000000     0          
T        Si     0.426415000000     0.546130000000     0.332245000000     0          
T        Si     0.448727500000     0.736940000000     0.292010000000     0          
T        Si     0.426360000000     0.633880000000     0.282095000000     0          
O        O      0.439660000000     0.683180000000     0.298700000000     0          
O        O      0.293645000000     0.507780000000     0.312310000000     0          
O        O      0.418525000000     0.766460000000     0.319845000000     0          
O        O      0.418635000000     0.876950000000     0.253535000000     0          
O        O      0.434497500000     0.595090000000     0.312920000000     0          
O        O      0.437500000000     0.750000000000     0.250000000000     0          
T        Si     0.301415000000     0.953870000000     0.082245000000     0          
T        Si     0.323727500000     0.763060000000     0.042010000000     0          
T        Si     0.301360000000     0.866120000000     0.032095000000     0          
T        Si     0.250000000000     0.617690000000     0.028640000000     0          
T        Si     0.250000000000     0.705030000000     0.081275000000     0          
T        Si     0.250000000000     0.512970000000     0.043055000000     0          
O        O      0.314660000000     0.816820000000     0.048700000000     0          
O        O      0.418645000000     0.992220000000     0.062310000000     0          
O        O      0.293525000000     0.733540000000     0.069845000000     0          
O        O      0.293635000000     0.623050000000     0.003535000000     0          
O        O      0.309497500000     0.904910000000     0.062920000000     0          
O        O      0.250000000000     0.567860000000     0.047760000000     0          
O        O      0.250000000000     0.656470000000     0.060190000000     0          
O        O      0.375000000000     0.751950000000     0.050335000000     0          
O        O      0.250000000000     0.967900000000     0.079030000000     0          
O        O      0.250000000000     0.865770000000     0.020185000000     0          
O        O      0.250000000000     0.695810000000     0.125000000000     0          
O        O      0.315407500000     0.950600000000     0.125000000000     0          
O        O      0.250000000000     0.500000000000     0.000000000000     0          
T        Si     0.448585000000     0.046130000000     0.332245000000     0          
T        Si     0.426272500000     0.236940000000     0.292010000000     0          
T        Si     0.448640000000     0.133880000000     0.282095000000     0          
T        Si     0.250000000000     0.382310000000     0.278640000000     0          
T        Si     0.250000000000     0.294970000000     0.331275000000     0          
T        Si     0.250000000000     0.487030000000     0.293055000000     0          
O        O      0.435340000000     0.183180000000     0.298700000000     0          
O        O      0.331355000000     0.007780000000     0.312310000000     0          
O        O      0.456475000000     0.266460000000     0.319845000000     0          
O        O      0.456365000000     0.376950000000     0.253535000000     0          
O        O      0.440502500000     0.095090000000     0.312920000000     0          
O        O      0.250000000000     0.432140000000     0.297760000000     0          
O        O      0.250000000000     0.343530000000     0.310190000000     0          
O        O      0.375000000000     0.248050000000     0.300335000000     0          
O        O      0.250000000000     0.032100000000     0.329030000000     0          
O        O      0.250000000000     0.134230000000     0.270185000000     0          
O        O      0.250000000000     0.304190000000     0.375000000000     0          
O        O      0.434592500000     0.049400000000     0.375000000000     0          
O        O      0.250000000000     0.500000000000     0.250000000000     0          
T        Si     0.301415000000     0.046130000000     0.417755000000     0          
T        Si     0.323727500000     0.236940000000     0.457990000000     0          
T        Si     0.301360000000     0.133880000000     0.467905000000     0          
T        Si     0.250000000000     0.382310000000     0.471360000000     0          
T        Si     0.250000000000     0.294970000000     0.418725000000     0          
T        Si     0.250000000000     0.487030000000     0.456945000000     0          
O        O      0.314660000000     0.183180000000     0.451300000000     0          
O        O      0.418645000000     0.007780000000     0.437690000000     0          
O        O      0.293525000000     0.266460000000     0.430155000000     0          
O        O      0.293635000000     0.376950000000     0.496465000000     0          
O        O      0.309497500000     0.095090000000     0.437080000000     0          
O        O      0.250000000000     0.432140000000     0.452240000000     0          
O        O      0.250000000000     0.343530000000     0.439810000000     0          
O        O      0.375000000000     0.248050000000     0.449665000000     0          
O        O      0.250000000000     0.032100000000     0.420970000000     0          
O        O      0.250000000000     0.134230000000     0.479815000000     0          
O        O      0.315407500000     0.049400000000     0.375000000000     0          
T        Si     0.448585000000     0.953870000000     0.167755000000     0          
T        Si     0.426272500000     0.763060000000     0.207990000000     0          
T        Si     0.448640000000     0.866120000000     0.217905000000     0          
T        Si     0.250000000000     0.617690000000     0.221360000000     0          
T        Si     0.250000000000     0.705030000000     0.168725000000     0          
T        Si     0.250000000000     0.512970000000     0.206945000000     0          
O        O      0.435340000000     0.816820000000     0.201300000000     0          
O        O      0.331355000000     0.992220000000     0.187690000000     0          
O        O      0.456475000000     0.733540000000     0.180155000000     0          
O        O      0.456365000000     0.623050000000     0.246465000000     0          
O        O      0.440502500000     0.904910000000     0.187080000000     0          
O        O      0.250000000000     0.567860000000     0.202240000000     0          
O        O      0.250000000000     0.656470000000     0.189810000000     0          
O        O      0.375000000000     0.751950000000     0.199665000000     0          
O        O      0.250000000000     0.967900000000     0.170970000000     0          
O        O      0.250000000000     0.865770000000     0.229815000000     0          
O        O      0.434592500000     0.950600000000     0.125000000000     0          
T        Si     0.448585000000     0.046130000000     0.417755000000     0          
T        Si     0.426272500000     0.236940000000     0.457990000000     0          
T        Si     0.448640000000     0.133880000000     0.467905000000     0          
O        O      0.435340000000     0.183180000000     0.451300000000     0          
O        O      0.331355000000     0.007780000000     0.437690000000     0          
O        O      0.456475000000     0.266460000000     0.430155000000     0          
O        O      0.456365000000     0.376950000000     0.496465000000     0          
O        O      0.440502500000     0.095090000000     0.437080000000     0          
T        Si     0.301415000000     0.953870000000     0.167755000000     0          
T        Si     0.323727500000     0.763060000000     0.207990000000     0          
T        Si     0.301360000000     0.866120000000     0.217905000000     0          
O        O      0.314660000000     0.816820000000     0.201300000000     0          
O        O      0.418645000000     0.992220000000     0.187690000000     0          
O        O      0.293525000000     0.733540000000     0.180155000000     0          
O        O      0.293635000000     0.623050000000     0.246465000000     0          
O        O      0.309497500000     0.904910000000     0.187080000000     0          
T        Si     0.448585000000     0.953870000000     0.082245000000     0          
T        Si     0.426272500000     0.763060000000     0.042010000000     0          
T        Si     0.448640000000     0.866120000000     0.032095000000     0          
O        O      0.435340000000     0.816820000000     0.048700000000     0          
O        O      0.331355000000     0.992220000000     0.062310000000     0          
O        O      0.456475000000     0.733540000000     0.069845000000     0          
O        O      0.456365000000     0.623050000000     0.003535000000     0          
O        O      0.440502500000     0.904910000000     0.062920000000     0          
T        Si     0.301415000000     0.046130000000     0.332245000000     0          
T        Si     0.323727500000     0.236940000000     0.292010000000     0          
T        Si     0.301360000000     0.133880000000     0.282095000000     0          
O        O      0.314660000000     0.183180000000     0.298700000000     0          
O        O      0.418645000000     0.007780000000     0.312310000000     0          
O        O      0.293525000000     0.266460000000     0.319845000000     0          
O        O      0.293635000000     0.376950000000     0.253535000000     0          
O        O      0.309497500000     0.095090000000     0.312920000000     0          
T        Si     0.426415000000     0.453870000000     0.582245000000     0          
T        Si     0.448727500000     0.263060000000     0.542010000000     0          
T        Si     0.426360000000     0.366120000000     0.532095000000     0          
T        Si     0.375000000000     0.117690000000     0.528640000000     0          
T        Si     0.375000000000     0.205030000000     0.581275000000     0          
T        Si     0.375000000000     0.012970000000     0.543055000000     0          
O        O      0.439660000000     0.316820000000     0.548700000000     0          
O        O      0.293645000000     0.492220000000     0.562310000000     0          
O        O      0.418525000000     0.233540000000     0.569845000000     0          
O        O      0.418635000000     0.123050000000     0.503535000000     0          
O        O      0.434497500000     0.404910000000     0.562920000000     0          
O        O      0.375000000000     0.067860000000     0.547760000000     0          
O        O      0.375000000000     0.156470000000     0.560190000000     0          
O        O      0.250000000000     0.251950000000     0.550335000000     0          
O        O      0.375000000000     0.467900000000     0.579030000000     0          
O        O      0.375000000000     0.365770000000     0.520185000000     0          
O        O      0.375000000000     0.195810000000     0.625000000000     0          
O        O      0.440407500000     0.450600000000     0.625000000000     0          
O        O      0.437500000000     0.250000000000     0.500000000000     0          
O        O      0.375000000000     0.000000000000     0.500000000000     0          
T        Si     0.323585000000     0.546130000000     0.832245000000     0          
T        Si     0.301272500000     0.736940000000     0.792010000000     0          
T        Si     0.323640000000     0.633880000000     0.782095000000     0          
T        Si     0.375000000000     0.882310000000     0.778640000000     0          
T        Si     0.375000000000     0.794970000000     0.831275000000     0          
T        Si     0.375000000000     0.987030000000     0.793055000000     0          
O        O      0.310340000000     0.683180000000     0.798700000000     0          
O        O      0.456355000000     0.507780000000     0.812310000000     0          
O        O      0.331475000000     0.766460000000     0.819845000000     0          
O        O      0.331365000000     0.876950000000     0.753535000000     0          
O        O      0.315502500000     0.595090000000     0.812920000000     0          
O        O      0.375000000000     0.932140000000     0.797760000000     0          
O        O      0.375000000000     0.843530000000     0.810190000000     0          
O        O      0.250000000000     0.748050000000     0.800335000000     0          
O        O      0.375000000000     0.532100000000     0.829030000000     0          
O        O      0.375000000000     0.634230000000     0.770185000000     0          
O        O      0.375000000000     0.804190000000     0.875000000000     0          
O        O      0.309592500000     0.549400000000     0.875000000000     0          
O        O      0.312500000000     0.750000000000     0.750000000000     0          
O        O      0.375000000000     0.000000000000     0.750000000000     0          
T        Si     0.426415000000     0.546130000000     0.917755000000     0          
T        Si     0.448727500000     0.736940000000     0.957990000000     0          
T        Si     0.426360000000     0.633880000000     0.967905000000     0          
T        Si     0.375000000000     0.882310000000     0.971360000000     0          
T        Si     0.375000000000     0.794970000000     0.918725000000     0          
T        Si     0.375000000000     0.987030000000     0.956945000000     0          
O        O      0.439660000000     0.683180000000     0.951300000000     0          
O        O      0.293645000000     0.507780000000     0.937690000000     0          
O        O      0.418525000000     0.766460000000     0.930155000000     0          
O        O      0.418635000000     0.876950000000     0.996465000000     0          
O        O      0.434497500000     0.595090000000     0.937080000000     0          
O        O      0.375000000000     0.932140000000     0.952240000000     0          
O        O      0.375000000000     0.843530000000     0.939810000000     0          
O        O      0.250000000000     0.748050000000     0.949665000000     0          
O        O      0.375000000000     0.532100000000     0.920970000000     0          
O        O      0.375000000000     0.634230000000     0.979815000000     0          
O        O      0.440407500000     0.549400000000     0.875000000000     0          
O        O      0.437500000000     0.750000000000     0.500000000000     0          
T        Si     0.323585000000     0.453870000000     0.667755000000     0          
T        Si     0.301272500000     0.263060000000     0.707990000000     0          
T        Si     0.323640000000     0.366120000000     0.717905000000     0          
T        Si     0.375000000000     0.117690000000     0.721360000000     0          
T        Si     0.375000000000     0.205030000000     0.668725000000     0          
T        Si     0.375000000000     0.012970000000     0.706945000000     0          
O        O      0.310340000000     0.316820000000     0.701300000000     0          
O        O      0.456355000000     0.492220000000     0.687690000000     0          
O        O      0.331475000000     0.233540000000     0.680155000000     0          
O        O      0.331365000000     0.123050000000     0.746465000000     0          
O        O      0.315502500000     0.404910000000     0.687080000000     0          
O        O      0.375000000000     0.067860000000     0.702240000000     0          
O        O      0.375000000000     0.156470000000     0.689810000000     0          
O        O      0.250000000000     0.251950000000     0.699665000000     0          
O        O      0.375000000000     0.467900000000     0.670970000000     0          
O        O      0.375000000000     0.365770000000     0.729815000000     0          
O        O      0.309592500000     0.450600000000     0.625000000000     0          
O        O      0.312500000000     0.250000000000     0.750000000000     0          
T        Si     0.323585000000     0.546130000000     0.917755000000     0          
T        Si     0.301272500000     0.736940000000     0.957990000000     0          
T        Si     0.323640000000     0.633880000000     0.967905000000     0          
O        O      0.310340000000     0.683180000000     0.951300000000     0          
O        O      0.456355000000     0.507780000000     0.937690000000     0          
O        O      0.331475000000     0.766460000000     0.930155000000     0          
O        O      0.331365000000     0.876950000000     0.996465000000     0          
O        O      0.315502500000     0.595090000000     0.937080000000     0          
O        O      0.312500000000     0.750000000000     0.500000000000     0          
T        Si     0.426415000000     0.453870000000     0.667755000000     0          
T        Si     0.448727500000     0.263060000000     0.707990000000     0          
T        Si     0.426360000000     0.366120000000     0.717905000000     0          
O        O      0.439660000000     0.316820000000     0.701300000000     0          
O        O      0.293645000000     0.492220000000     0.687690000000     0          
O        O      0.418525000000     0.233540000000     0.680155000000     0          
O        O      0.418635000000     0.123050000000     0.746465000000     0          
O        O      0.434497500000     0.404910000000     0.687080000000     0          
O        O      0.437500000000     0.250000000000     0.750000000000     0          
T        Si     0.323585000000     0.453870000000     0.582245000000     0          
T        Si     0.301272500000     0.263060000000     0.542010000000     0          
T        Si     0.323640000000     0.366120000000     0.532095000000     0          
O        O      0.310340000000     0.316820000000     0.548700000000     0          
O        O      0.456355000000     0.492220000000     0.562310000000     0          
O        O      0.331475000000     0.233540000000     0.569845000000     0          
O        O      0.331365000000     0.123050000000     0.503535000000     0          
O        O      0.315502500000     0.404910000000     0.562920000000     0          
O        O      0.312500000000     0.250000000000     0.500000000000     0          
T        Si     0.426415000000     0.546130000000     0.832245000000     0          
T        Si     0.448727500000     0.736940000000     0.792010000000     0          
T        Si     0.426360000000     0.633880000000     0.782095000000     0          
O        O      0.439660000000     0.683180000000     0.798700000000     0          
O        O      0.293645000000     0.507780000000     0.812310000000     0          
O        O      0.418525000000     0.766460000000     0.819845000000     0          
O        O      0.418635000000     0.876950000000     0.753535000000     0          
O        O      0.434497500000     0.595090000000     0.812920000000     0          
O        O      0.437500000000     0.750000000000     0.750000000000     0          
T        Si     0.301415000000     0.953870000000     0.582245000000     0          
T        Si     0.323727500000     0.763060000000     0.542010000000     0          
T        Si     0.301360000000     0.866120000000     0.532095000000     0          
T        Si     0.250000000000     0.617690000000     0.528640000000     0          
T        Si     0.250000000000     0.705030000000     0.581275000000     0          
T        Si     0.250000000000     0.512970000000     0.543055000000     0          
O        O      0.314660000000     0.816820000000     0.548700000000     0          
O        O      0.418645000000     0.992220000000     0.562310000000     0          
O        O      0.293525000000     0.733540000000     0.569845000000     0          
O        O      0.293635000000     0.623050000000     0.503535000000     0          
O        O      0.309497500000     0.904910000000     0.562920000000     0          
O        O      0.250000000000     0.567860000000     0.547760000000     0          
O        O      0.250000000000     0.656470000000     0.560190000000     0          
O        O      0.375000000000     0.751950000000     0.550335000000     0          
O        O      0.250000000000     0.967900000000     0.579030000000     0          
O        O      0.250000000000     0.865770000000     0.520185000000     0          
O        O      0.250000000000     0.695810000000     0.625000000000     0          
O        O      0.315407500000     0.950600000000     0.625000000000     0          
O        O      0.250000000000     0.500000000000     0.500000000000     0          
T        Si     0.448585000000     0.046130000000     0.832245000000     0          
T        Si     0.426272500000     0.236940000000     0.792010000000     0          
T        Si     0.448640000000     0.133880000000     0.782095000000     0          
T        Si     0.250000000000     0.382310000000     0.778640000000     0          
T        Si     0.250000000000     0.294970000000     0.831275000000     0          
T        Si     0.250000000000     0.487030000000     0.793055000000     0          
O        O      0.435340000000     0.183180000000     0.798700000000     0          
O        O      0.331355000000     0.007780000000     0.812310000000     0          
O        O      0.456475000000     0.266460000000     0.819845000000     0          
O        O      0.456365000000     0.376950000000     0.753535000000     0          
O        O      0.440502500000     0.095090000000     0.812920000000     0          
O        O      0.250000000000     0.432140000000     0.797760000000     0          
O        O      0.250000000000     0.343530000000     0.810190000000     0          
O        O      0.375000000000     0.248050000000     0.800335000000     0          
O        O      0.250000000000     0.032100000000     0.829030000000     0          
O        O      0.250000000000     0.134230000000     0.770185000000     0          
O        O      0.250000000000     0.304190000000     0.875000000000     0          
O        O      0.434592500000     0.049400000000     0.875000000000     0          
O        O      0.250000000000     0.500000000000     0.750000000000     0          
T        Si     0.301415000000     0.046130000000     0.917755000000     0          
T        Si     0.323727500000     0.236940000000     0.957990000000     0          
T        Si     0.301360000000     0.133880000000     0.967905000000     0          
T        Si     0.250000000000     0.382310000000     0.971360000000     0          
T        Si     0.250000000000     0.294970000000     0.918725000000     0          
T        Si     0.250000000000     0.487030000000     0.956945000000     0          
O        O      0.314660000000     0.183180000000     0.951300000000     0          
O        O      0.418645000000     0.007780000000     0.937690000000     0          
O        O      0.293525000000     0.266460000000     0.930155000000     0          
O        O      0.293635000000     0.376950000000     0.996465000000     0          
O        O      0.309497500000     0.095090000000     0.937080000000     0          
O        O      0.250000000000     0.432140000000     0.952240000000     0          
O        O      0.250000000000     0.343530000000     0.939810000000     0          
O        O      0.375000000000     0.248050000000     0.949665000000     0          
O        O      0.250000000000     0.032100000000     0.920970000000     0          
O        O      0.250000000000     0.134230000000     0.979815000000     0          
O        O      0.315407500000     0.049400000000     0.875000000000     0          
T        Si     0.448585000000     0.953870000000     0.667755000000     0          
T        Si     0.426272500000     0.763060000000     0.707990000000     0          
T        Si     0.448640000000     0.866120000000     0.717905000000     0          
T        Si     0.250000000000     0.617690000000     0.721360000000     0          
T        Si     0.250000000000     0.705030000000     0.668725000000     0          
T        Si     0.250000000000     0.512970000000     0.706945000000     0          
O        O      0.435340000000     0.816820000000     0.701300000000     0          
O        O      0.331355000000     0.992220000000     0.687690000000     0          
O        O      0.456475000000     0.733540000000     0.680155000000     0          
O        O      0.456365000000     0.623050000000     0.746465000000     0          
O        O      0.440502500000     0.904910000000     0.687080000000     0          
O        O      0.250000000000     0.567860000000     0.702240000000     0          
O        O      0.250000000000     0.656470000000     0.689810000000     0          
O        O      0.375000000000     0.751950000000     0.699665000000     0          
O        O      0.250000000000     0.967900000000     0.670970000000     0          
O        O      0.250000000000     0.865770000000     0.729815000000     0          
O        O      0.434592500000     0.950600000000     0.625000000000     0          
T        Si     0.448585000000     0.046130000000     0.917755000000     0          
T        Si     0.426272500000     0.236940000000     0.957990000000     0          
T        Si     0.448640000000     0.133880000000     0.967905000000     0          
O        O      0.435340000000     0.183180000000     0.951300000000     0          
O        O      0.331355000000     0.007780000000     0.937690000000     0          
O        O      0.456475000000     0.266460000000     0.930155000000     0          
O        O      0.456365000000     0.376950000000     0.996465000000     0          
O        O      0.440502500000     0.095090000000     0.937080000000     0          
T        Si     0.301415000000     0.953870000000     0.667755000000     0          
T        Si     0.323727500000     0.763060000000     0.707990000000     0          
T        Si     0.301360000000     0.866120000000     0.717905000000     0          
O        O      0.314660000000     0.816820000000     0.701300000000     0          
O        O      0.418645000000     0.992220000000     0.687690000000     0          
O        O      0.293525000000     0.733540000000     0.680155000000     0          
O        O      0.293635000000     0.623050000000     0.746465000000     0          
O        O      0.309497500000     0.904910000000     0.687080000000     0          
T        Si     0.448585000000     0.953870000000     0.582245000000     0          
T        Si     0.426272500000     0.763060000000     0.542010000000     0          
T        Si     0.448640000000     0.866120000000     0.532095000000     0          
O        O      0.435340000000     0.816820000000     0.548700000000     0          
O        O      0.331355000000     0.992220000000     0.562310000000     0          
O        O      0.456475000000     0.733540000000     0.569845000000     0          
O        O      0.456365000000     0.623050000000     0.503535000000     0          
O        O      0.440502500000     0.904910000000     0.562920000000     0          
T        Si     0.301415000000     0.046130000000     0.832245000000     0          
T        Si     0.323727500000     0.236940000000     0.792010000000     0          
T        Si     0.301360000000     0.133880000000     0.782095000000     0          
O        O      0.314660000000     0.183180000000     0.798700000000     0          
O        O      0.418645000000     0.007780000000     0.812310000000     0          
O        O      0.293525000000     0.266460000000     0.819845000000     0          
O        O      0.293635000000     0.376950000000     0.753535000000     0          
O        O      0.309497500000     0.095090000000     0.812920000000     0          
T        Si     0.676415000000     0.453870000000     0.082245000000     0          
T        Si     0.698727500000     0.263060000000     0.042010000000     0          
T        Si     0.676360000000     0.366120000000     0.032095000000     0          
T        Si     0.625000000000     0.117690000000     0.028640000000     0          
T        Si     0.625000000000     0.205030000000     0.081275000000     0          
T        Si     0.625000000000     0.012970000000     0.043055000000     0          
O        O      0.689660000000     0.316820000000     0.048700000000     0          
O        O      0.543645000000     0.492220000000     0.062310000000     0          
O        O      0.668525000000     0.233540000000     0.069845000000     0          
O        O      0.668635000000     0.123050000000     0.003535000000     0          
O        O      0.684497500000     0.404910000000     0.062920000000     0          
O        O      0.625000000000     0.067860000000     0.047760000000     0          
O        O      0.625000000000     0.156470000000     0.060190000000     0          
O        O      0.500000000000     0.251950000000     0.050335000000     0          
O        O      0.625000000000     0.467900000000     0.079030000000     0          
O        O      0.625000000000     0.365770000000     0.020185000000     0          
O        O      0.625000000000     0.195810000000     0.125000000000     0          
O        O      0.690407500000     0.450600000000     0.125000000000     0          
O        O      0.687500000000     0.250000000000     0.000000000000     0          
O        O      0.625000000000     0.000000000000     0.000000000000     0          
T        Si     0.573585000000     0.546130000000     0.332245000000     0          
T        Si     0.551272500000     0.736940000000     0.292010000000     0          
T        Si     0.573640000000     0.633880000000     0.282095000000     0          
T        Si     0.625000000000     0.882310000000     0.278640000000     0          
T        Si     0.625000000000     0.794970000000     0.331275000000     0          
T        Si     0.625000000000     0.987030000000     0.293055000000     0          
O        O      0.560340000000     0.683180000000     0.298700000000     0          
O        O      0.706355000000     0.507780000000     0.312310000000     0          
O        O      0.581475000000     0.766460000000     0.319845000000     0          
O        O      0.581365000000     0.876950000000     0.253535000000     0          
O        O      0.565502500000     0.595090000000     0.312920000000     0          
O        O      0.625000000000     0.932140000000     0.297760000000     0          
O        O      0.625000000000     0.843530000000     0.310190000000     0          
O        O      0.500000000000     0.748050000000     0.300335000000     0          
O        O      0.625000000000     0.532100000000     0.329030000000     0          
O        O      0.625000000000     0.634230000000     0.270185000000     0          
O        O      0.625000000000     0.804190000000     0.375000000000     0          
O        O      0.559592500000     0.549400000000     0.375000000000     0          
O        O      0.562500000000     0.750000000000     0.250000000000     0          
O        O      0.625000000000     0.000000000000     0.250000000000     0          
T        Si     0.676415000000     0.546130000000     0.417755000000     0          
T        Si     0.698727500000     0.736940000000     0.457990000000     0          
T        Si     0.676360000000     0.633880000000     0.467905000000     0          
T        Si     0.625000000000     0.882310000000     0.471360000000     0          
T        Si     0.625000000000     0.794970000000     0.418725000000     0          
T        Si     0.625000000000     0.987030000000     0.456945000000     0          
O        O      0.689660000000     0.683180000000     0.451300000000     0          
O        O      0.543645000000     0.507780000000     0.437690000000     0          
O        O      0.668525000000     0.766460000000     0.430155000000     0          
O        O      0.668635000000     0.876950000000     0.496465000000     0          
O        O      0.684497500000     0.595090000000     0.437080000000     0          
O        O      0.625000000000     0.932140000000     0.452240000000     0          
O        O      0.625000000000     0.843530000000     0.439810000000     0          
O        O      0.500000000000     0.748050000000     0.449665000000     0          
O        O      0.625000000000     0.532100000000     0.420970000000     0          
O        O      0.625000000000     0.634230000000     0.479815000000     0          
O        O      0.690407500000     0.549400000000     0.375000000000     0          
O        O      0.687500000000     0.750000000000     0.000000000000     0          
T        Si     0.573585000000     0.453870000000     0.167755000000     0          
T        Si     0.551272500000     0.263060000000     0.207990000000     0          
T        Si     0.573640000000     0.366120000000     0.217905000000     0          
T        Si     0.625000000000     0.117690000000     0.221360000000     0          
T        Si     0.625000000000     0.205030000000     0.168725000000     0          
T        Si     0.625000000000     0.012970000000     0.206945000000     0          
O        O      0.560340000000     0.316820000000     0.201300000000     0          
O        O      0.706355000000     0.492220000000     0.187690000000     0          
O        O      0.581475000000     0.233540000000     0.180155000000     0          
O        O      0.581365000000     0.123050000000     0.246465000000     0          
O        O      0.565502500000     0.404910000000     0.187080000000     0          
O        O      0.625000000000     0.067860000000     0.202240000000     0          
O        O      0.625000000000     0.156470000000     0.189810000000     0          
O        O      0.500000000000     0.251950000000     0.199665000000     0          
O        O      0.625000000000     0.467900000000     0.170970000000     0          
O        O      0.625000000000     0.365770000000     0.229815000000     0          
O        O      0.559592500000     0.450600000000     0.125000000000     0          
O        O      0.562500000000     0.250000000000     0.250000000000     0          
T        Si     0.573585000000     0.546130000000     0.417755000000     0          
T        Si     0.551272500000     0.736940000000     0.457990000000     0          
T        Si     0.573640000000     0.633880000000     0.467905000000     0          
O        O      0.560340000000     0.683180000000     0.451300000000     0          
O        O      0.706355000000     0.507780000000     0.437690000000     0          
O        O      0.581475000000     0.766460000000     0.430155000000     0          
O        O      0.581365000000     0.876950000000     0.496465000000     0          
O        O      0.565502500000     0.595090000000     0.437080000000     0          
O        O      0.562500000000     0.750000000000     0.000000000000     0          
T        Si     0.676415000000     0.453870000000     0.167755000000     0          
T        Si     0.698727500000     0.263060000000     0.207990000000     0          
T        Si     0.676360000000     0.366120000000     0.217905000000     0          
O        O      0.689660000000     0.316820000000     0.201300000000     0          
O        O      0.543645000000     0.492220000000     0.187690000000     0          
O        O      0.668525000000     0.233540000000     0.180155000000     0          
O        O      0.668635000000     0.123050000000     0.246465000000     0          
O        O      0.684497500000     0.404910000000     0.187080000000     0          
O        O      0.687500000000     0.250000000000     0.250000000000     0          
T        Si     0.573585000000     0.453870000000     0.082245000000     0          
T        Si     0.551272500000     0.263060000000     0.042010000000     0          
T        Si     0.573640000000     0.366120000000     0.032095000000     0          
O        O      0.560340000000     0.316820000000     0.048700000000     0          
O        O      0.706355000000     0.492220000000     0.062310000000     0          
O        O      0.581475000000     0.233540000000     0.069845000000     0          
O        O      0.581365000000     0.123050000000     0.003535000000     0          
O        O      0.565502500000     0.404910000000     0.062920000000     0          
O        O      0.562500000000     0.250000000000     0.000000000000     0          
T        Si     0.676415000000     0.546130000000     0.332245000000     0          
T        Si     0.698727500000     0.736940000000     0.292010000000     0          
T        Si     0.676360000000     0.633880000000     0.282095000000     0          
O        O      0.689660000000     0.683180000000     0.298700000000     0          
O        O      0.543645000000     0.507780000000     0.312310000000     0          
O        O      0.668525000000     0.766460000000     0.319845000000     0          
O        O      0.668635000000     0.876950000000     0.253535000000     0          
O        O      0.684497500000     0.595090000000     0.312920000000     0          
O        O      0.687500000000     0.750000000000     0.250000000000     0          
T        Si     0.551415000000     0.953870000000     0.082245000000     0          
T        Si     0.573727500000     0.763060000000     0.042010000000     0          
T        Si     0.551360000000     0.866120000000     0.032095000000     0          
T        Si     0.500000000000     0.617690000000     0.028640000000     0          
T        Si     0.500000000000     0.705030000000     0.081275000000     0          
T        Si     0.500000000000     0.512970000000     0.043055000000     0          
O        O      0.564660000000     0.816820000000     0.048700000000     0          
O        O      0.668645000000     0.992220000000     0.062310000000     0          
O        O      0.543525000000     0.733540000000     0.069845000000     0          
O        O      0.543635000000     0.623050000000     0.003535000000     0          
O        O      0.559497500000     0.904910000000     0.062920000000     0          
O        O      0.500000000000     0.567860000000     0.047760000000     0          
O        O      0.500000000000     0.656470000000     0.060190000000     0          
O        O      0.625000000000     0.751950000000     0.050335000000     0          
O        O      0.500000000000     0.967900000000     0.079030000000     0          
O        O      0.500000000000     0.865770000000     0.020185000000     0          
O        O      0.500000000000     0.695810000000     0.125000000000     0          
O        O      0.565407500000     0.950600000000     0.125000000000     0          
O        O      0.500000000000     0.500000000000     0.000000000000     0          
T        Si     0.698585000000     0.046130000000     0.332245000000     0          
T        Si     0.676272500000     0.236940000000     0.292010000000     0          
T        Si     0.698640000000     0.133880000000     0.282095000000     0          
T        Si     0.500000000000     0.382310000000     0.278640000000     0          
T        Si     0.500000000000     0.294970000000     0.331275000000     0          
T        Si     0.500000000000     0.487030000000     0.293055000000     0          
O        O      0.685340000000     0.183180000000     0.298700000000     0          
O        O      0.581355000000     0.007780000000     0.312310000000     0          
O        O      0.706475000000     0.266460000000     0.319845000000     0          
O        O      0.706365000000     0.376950000000     0.253535000000     0          
O        O      0.690502500000     0.095090000000     0.312920000000     0          
O        O      0.500000000000     0.432140000000     0.297760000000     0          
O        O      0.500000000000     0.343530000000     0.310190000000     0          
O        O      0.625000000000     0.248050000000     0.300335000000     0          
O        O      0.500000000000     0.032100000000     0.329030000000     0          
O        O      0.500000000000     0.134230000000     0.270185000000     0          
O        O      0.500000000000     0.304190000000     0.375000000000     0          
O        O      0.684592500000     0.049400000000     0.375000000000     0          
O        O      0.500000000000     0.500000000000     0.250000000000     0          
T        Si     0.551415000000     0.046130000000     0.417755000000     0          
T        Si     0.573727500000     0.236940000000     0.457990000000     0          
T        Si     0.551360000000     0.133880000000     0.467905000000     0          
T        Si     0.500000000000     0.382310000000     0.471360000000     0          
T        Si     0.500000000000     0.294970000000     0.418725000000     0          
T        Si     0.500000000000     0.487030000000     0.456945000000     0          
O        O      0.564660000000     0.183180000000     0.451300000000     0          
O        O      0.668645000000     0.007780000000     0.437690000000     0          
O        O      0.543525000000     0.266460000000     0.430155000000     0          
O        O      0.543635000000     0.376950000000     0.496465000000     0          
O        O      0.559497500000     0.095090000000     0.437080000000     0          
O        O      0.500000000000     0.432140000000     0.452240000000     0          
O        O      0.500000000000     0.343530000000     0.439810000000     0          
O        O      0.625000000000     0.248050000000     0.449665000000     0          
O        O      0.500000000000     0.032100000000     0.420970000000     0          
O        O      0.500000000000     0.134230000000     0.479815000000     0          
O        O      0.565407500000     0.049400000000     0.375000000000     0          
T        Si     0.698585000000     0.953870000000     0.167755000000     0          
T        Si     0.676272500000     0.763060000000     0.207990000000     0          
T        Si     0.698640000000     0.866120000000     0.217905000000     0          
T        Si     0.500000000000     0.617690000000     0.221360000000     0          
T        Si     0.500000000000     0.705030000000     0.168725000000     0          
T        Si     0.500000000000     0.512970000000     0.206945000000     0          
O        O      0.685340000000     0.816820000000     0.201300000000     0          
O        O      0.581355000000     0.992220000000     0.187690000000     0          
O        O      0.706475000000     0.733540000000     0.180155000000     0          
O        O      0.706365000000     0.623050000000     0.246465000000     0          
O        O      0.690502500000     0.904910000000     0.187080000000     0          
O        O      0.500000000000     0.567860000000     0.202240000000     0          
O        O      0.500000000000     0.656470000000     0.189810000000     0          
O        O      0.625000000000     0.751950000000     0.199665000000     0          
O        O      0.500000000000     0.967900000000     0.170970000000     0          
O        O      0.500000000000     0.865770000000     0.229815000000     0          
O        O      0.684592500000     0.950600000000     0.125000000000     0          
T        Si     0.698585000000     0.046130000000     0.417755000000     0          
T        Si     0.676272500000     0.236940000000     0.457990000000     0          
T        Si     0.698640000000     0.133880000000     0.467905000000     0          
O        O      0.685340000000     0.183180000000     0.451300000000     0          
O        O      0.581355000000     0.007780000000     0.437690000000     0          
O        O      0.706475000000     0.266460000000     0.430155000000     0          
O        O      0.706365000000     0.376950000000     0.496465000000     0          
O        O      0.690502500000     0.095090000000     0.437080000000     0          
T        Si     0.551415000000     0.953870000000     0.167755000000     0          
T        Si     0.573727500000     0.763060000000     0.207990000000     0          
T        Si     0.551360000000     0.866120000000     0.217905000000     0          
O        O      0.564660000000     0.816820000000     0.201300000000     0          
O        O      0.668645000000     0.992220000000     0.187690000000     0          
O        O      0.543525000000     0.733540000000     0.180155000000     0          
O        O      0.543635000000     0.623050000000     0.246465000000     0          
O        O      0.559497500000     0.904910000000     0.187080000000     0          
T        Si     0.698585000000     0.953870000000     0.082245000000     0          
T        Si     0.676272500000     0.763060000000     0.042010000000     0          
T        Si     0.698640000000     0.866120000000     0.032095000000     0          
O        O      0.685340000000     0.816820000000     0.048700000000     0          
O        O      0.581355000000     0.992220000000     0.062310000000     0          
O        O      0.706475000000     0.733540000000     0.069845000000     0          
O        O      0.706365000000     0.623050000000     0.003535000000     0          
O        O      0.690502500000     0.904910000000     0.062920000000     0          
T        Si     0.551415000000     0.046130000000     0.332245000000     0          
T        Si     0.573727500000     0.236940000000     0.292010000000     0          
T        Si     0.551360000000     0.133880000000     0.282095000000     0          
O        O      0.564660000000     0.183180000000     0.298700000000     0          
O        O      0.668645000000     0.007780000000     0.312310000000     0          
O        O      0.543525000000     0.266460000000     0.319845000000     0          
O        O      0.543635000000     0.376950000000     0.253535000000     0          
O        O      0.559497500000     0.095090000000     0.312920000000     0          
T        Si     0.676415000000     0.453870000000     0.582245000000     0          
T        Si     0.698727500000     0.263060000000     0.542010000000     0          
T        Si     0.676360000000     0.366120000000     0.532095000000     0          
T        Si     0.625000000000     0.117690000000     0.528640000000     0          
T        Si     0.625000000000     0.205030000000     0.581275000000     0          
T        Si     0.625000000000     0.012970000000     0.543055000000     0          
O        O      0.689660000000     0.316820000000     0.548700000000     0          
O        O      0.543645000000     0.492220000000     0.562310000000     0          
O        O      0.668525000000     0.233540000000     0.569845000000     0          
O        O      0.668635000000     0.123050000000     0.503535000000     0          
O        O      0.684497500000     0.404910000000     0.562920000000     0          
O        O      0.625000000000     0.067860000000     0.547760000000     0          
O        O      0.625000000000     0.156470000000     0.560190000000     0          
O        O      0.500000000000     0.251950000000     0.550335000000     0          
O        O      0.625000000000     0.467900000000     0.579030000000     0          
O        O      0.625000000000     0.365770000000     0.520185000000     0          
O        O      0.625000000000     0.195810000000     0.625000000000     0          
O        O      0.690407500000     0.450600000000     0.625000000000     0          
O        O      0.687500000000     0.250000000000     0.500000000000     0          
O        O      0.625000000000     0.000000000000     0.500000000000     0          
T        Si     0.573585000000     0.546130000000     0.832245000000     0          
T        Si     0.551272500000     0.736940000000     0.792010000000     0          
T        Si     0.573640000000     0.633880000000     0.782095000000     0          
T        Si     0.625000000000     0.882310000000     0.778640000000     0          
T        Si     0.625000000000     0.794970000000     0.831275000000     0          
T        Si     0.625000000000     0.987030000000     0.793055000000     0          
O        O      0.560340000000     0.683180000000     0.798700000000     0          
O        O      0.706355000000     0.507780000000     0.812310000000     0          
O        O      0.581475000000     0.766460000000     0.819845000000     0          
O        O      0.581365000000     0.876950000000     0.753535000000     0          
O        O      0.565502500000     0.595090000000     0.812920000000     0          
O        O      0.625000000000     0.932140000000     0.797760000000     0          
O        O      0.625000000000     0.843530000000     0.810190000000     0          
O        O      0.500000000000     0.748050000000     0.800335000000     0          
O        O      0.625000000000     0.532100000000     0.829030000000     0          
O        O      0.625000000000     0.634230000000     0.770185000000     0          
O        O      0.625000000000     0.804190000000     0.875000000000     0          
O        O      0.559592500000     0.549400000000     0.875000000000     0          
O        O      0.562500000000     0.750000000000     0.750000000000     0          
O        O      0.625000000000     0.000000000000     0.750000000000     0          
T        Si     0.676415000000     0.546130000000     0.917755000000     0          
T        Si     0.698727500000     0.736940000000     0.957990000000     0          
T        Si     0.676360000000     0.633880000000     0.967905000000     0          
T        Si     0.625000000000     0.882310000000     0.971360000000     0          
T        Si     0.625000000000     0.794970000000     0.918725000000     0          
T        Si     0.625000000000     0.987030000000     0.956945000000     0          
O        O      0.689660000000     0.683180000000     0.951300000000     0          
O        O      0.543645000000     0.507780000000     0.937690000000     0          
O        O      0.668525000000     0.766460000000     0.930155000000     0          
O        O      0.668635000000     0.876950000000     0.996465000000     0          
O        O      0.684497500000     0.595090000000     0.937080000000     0          
O        O      0.625000000000     0.932140000000     0.952240000000     0          
O        O      0.625000000000     0.843530000000     0.939810000000     0          
O        O      0.500000000000     0.748050000000     0.949665000000     0          
O        O      0.625000000000     0.532100000000     0.920970000000     0          
O        O      0.625000000000     0.634230000000     0.979815000000     0          
O        O      0.690407500000     0.549400000000     0.875000000000     0          
O        O      0.687500000000     0.750000000000     0.500000000000     0          
T        Si     0.573585000000     0.453870000000     0.667755000000     0          
T        Si     0.551272500000     0.263060000000     0.707990000000     0          
T        Si     0.573640000000     0.366120000000     0.717905000000     0          
T        Si     0.625000000000     0.117690000000     0.721360000000     0          
T        Si     0.625000000000     0.205030000000     0.668725000000     0          
T        Si     0.625000000000     0.012970000000     0.706945000000     0          
O        O      0.560340000000     0.316820000000     0.701300000000     0          
O        O      0.706355000000     0.492220000000     0.687690000000     0          
O        O      0.581475000000     0.233540000000     0.680155000000     0          
O        O      0.581365000000     0.123050000000     0.746465000000     0          
O        O      0.565502500000     0.404910000000     0.687080000000     0          
O        O      0.625000000000     0.067860000000     0.702240000000     0          
O        O      0.625000000000     0.156470000000     0.689810000000     0          
O        O      0.500000000000     0.251950000000     0.699665000000     0          
O        O      0.625000000000     0.467900000000     0.670970000000     0          
O        O      0.625000000000     0.365770000000     0.729815000000     0          
O        O      0.559592500000     0.450600000000     0.625000000000     0          
O        O      0.562500000000     0.250000000000     0.750000000000     0          
T        Si     0.573585000000     0.546130000000     0.917755000000     0          
T        Si     0.551272500000     0.736940000000     0.957990000000     0          
T        Si     0.573640000000     0.633880000000     0.967905000000     0          
O        O      0.560340000000     0.683180000000     0.951300000000     0          
O        O      0.706355000000     0.507780000000     0.937690000000     0          
O        O      0.581475000000     0.766460000000     0.930155000000     0          
O        O      0.581365000000     0.876950000000     0.996465000000     0          
O        O      0.565502500000     0.595090000000     0.937080000000     0          
O        O      0.562500000000     0.750000000000     0.500000000000     0          
T        Si     0.676415000000     0.453870000000     0.667755000000     0          
T        Si     0.698727500000     0.263060000000     0.707990000000     0          
T        Si     0.676360000000     0.366120000000     0.717905000000     0          
O        O      0.689660000000     0.316820000000     0.701300000000     0          
O        O      0.543645000000     0.492220000000     0.687690000000     0          
O        O      0.668525000000     0.233540000000     0.680155000000     0          
O        O      0.668635000000     0.123050000000     0.746465000000     0          
O        O      0.684497500000     0.404910000000     0.687080000000     0          
O        O      0.687500000000     0.250000000000     0.750000000000     0          
T        Si     0.573585000000     0.453870000000     0.582245000000     0          
T        Si     0.551272500000     0.263060000000     0.542010000000     0          
T        Si     0.573640000000     0.366120000000     0.532095000000     0          
O        O      0.560340000000     0.316820000000     0.548700000000     0          
O        O      0.706355000000     0.492220000000     0.562310000000     0          
O        O      0.581475000000     0.233540000000     0.569845000000     0          
O        O      0.581365000000     0.123050000000     0.503535000000     0          
O        O      0.565502500000     0.404910000000     0.562920000000     0          
O        O      0.562500000000     0.250000000000     0.500000000000     0          
T        Si     0.676415000000     0.546130000000     0.832245000000     0          
T        Si     0.698727500000     0.736940000000     0.792010000000     0          
T        Si     0.676360000000     0.633880000000     0.782095000000     0          
O        O      0.689660000000     0.683180000000     0.798700000000     0          
O        O      0.543645000000     0.507780000000     0.812310000000     0          
O        O      0.668525000000     0.766460000000     0.819845000000     0          
O        O      0.668635000000     0.876950000000     0.753535000000     0          
O        O      0.684497500000     0.595090000000     0.812920000000     0          
O        O      0.687500000000     0.750000000000     0.750000000000     0          
T        Si     0.551415000000     0.953870000000     0.582245000000     0          
T        Si     0.573727500000     0.763060000000     0.542010000000     0          
T        Si     0.551360000000     0.866120000000     0.532095000000     0          
T        Si     0.500000000000     0.617690000000     0.528640000000     0          
T        Si     0.500000000000     0.705030000000     0.581275000000     0          
T        Si     0.500000000000     0.512970000000     0.543055000000     0          
O        O      0.564660000000     0.816820000000     0.548700000000     0          
O        O      0.668645000000     0.992220000000     0.562310000000     0          
O        O      0.543525000000     0.733540000000     0.569845000000     0          
O        O      0.543635000000     0.623050000000     0.503535000000     0          
O        O      0.559497500000     0.904910000000     0.562920000000     0          
O        O      0.500000000000     0.567860000000     0.547760000000     0          
O        O      0.500000000000     0.656470000000     0.560190000000     0          
O        O      0.625000000000     0.751950000000     0.550335000000     0          
O        O      0.500000000000     0.967900000000     0.579030000000     0          
O        O      0.500000000000     0.865770000000     0.520185000000     0          
O        O      0.500000000000     0.695810000000     0.625000000000     0          
O        O      0.565407500000     0.950600000000     0.625000000000     0          
O        O      0.500000000000     0.500000000000     0.500000000000     0          
T        Si     0.698585000000     0.046130000000     0.832245000000     0          
T        Si     0.676272500000     0.236940000000     0.792010000000     0          
T        Si     0.698640000000     0.133880000000     0.782095000000     0          
T        Si     0.500000000000     0.382310000000     0.778640000000     0          
T        Si     0.500000000000     0.294970000000     0.831275000000     0          
T        Si     0.500000000000     0.487030000000     0.793055000000     0          
O        O      0.685340000000     0.183180000000     0.798700000000     0          
O        O      0.581355000000     0.007780000000     0.812310000000     0          
O        O      0.706475000000     0.266460000000     0.819845000000     0          
O        O      0.706365000000     0.376950000000     0.753535000000     0          
O        O      0.690502500000     0.095090000000     0.812920000000     0          
O        O      0.500000000000     0.432140000000     0.797760000000     0          
O        O      0.500000000000     0.343530000000     0.810190000000     0          
O        O      0.625000000000     0.248050000000     0.800335000000     0          
O        O      0.500000000000     0.032100000000     0.829030000000     0          
O        O      0.500000000000     0.134230000000     0.770185000000     0          
O        O      0.500000000000     0.304190000000     0.875000000000     0          
O        O      0.684592500000     0.049400000000     0.875000000000     0          
O        O      0.500000000000     0.500000000000     0.750000000000     0          
T        Si     0.551415000000     0.046130000000     0.917755000000     0          
T        Si     0.573727500000     0.236940000000     0.957990000000     0          
T        Si     0.551360000000     0.133880000000     0.967905000000     0          
T        Si     0.500000000000     0.382310000000     0.971360000000     0          
T        Si     0.500000000000     0.294970000000     0.918725000000     0          
T        Si     0.500000000000     0.487030000000     0.956945000000     0          
O        O      0.564660000000     0.183180000000     0.951300000000     0          
O        O      0.668645000000     0.007780000000     0.937690000000     0          
O        O      0.543525000000     0.266460000000     0.930155000000     0          
O        O      0.543635000000     0.376950000000     0.996465000000     0          
O        O      0.559497500000     0.095090000000     0.937080000000     0          
O        O      0.500000000000     0.432140000000     0.952240000000     0          
O        O      0.500000000000     0.343530000000     0.939810000000     0          
O        O      0.625000000000     0.248050000000     0.949665000000     0          
O        O      0.500000000000     0.032100000000     0.920970000000     0          
O        O      0.500000000000     0.134230000000     0.979815000000     0          
O        O      0.565407500000     0.049400000000     0.875000000000     0          
T        Si     0.698585000000     0.953870000000     0.667755000000     0          
T        Si     0.676272500000     0.763060000000     0.707990000000     0          
T        Si     0.698640000000     0.866120000000     0.717905000000     0          
T        Si     0.500000000000     0.617690000000     0.721360000000     0          
T        Si     0.500000000000     0.705030000000     0.668725000000     0          
T        Si     0.500000000000     0.512970000000     0.706945000000     0          
O        O      0.685340000000     0.816820000000     0.701300000000     0          
O        O      0.581355000000     0.992220000000     0.687690000000     0          
O        O      0.706475000000     0.733540000000     0.680155000000     0          
O        O      0.706365000000     0.623050000000     0.746465000000     0          
O        O      0.690502500000     0.904910000000     0.687080000000     0          
O        O      0.500000000000     0.567860000000     0.702240000000     0          
O        O      0.500000000000     0.656470000000     0.689810000000     0          
O        O      0.625000000000     0.751950000000     0.699665000000     0          
O        O      0.500000000000     0.967900000000     0.670970000000     0          
O        O      0.500000000000     0.865770000000     0.729815000000     0          
O        O      0.684592500000     0.950600000000     0.625000000000     0          
T        Si     0.698585000000     0.046130000000     0.917755000000     0          
T        Si     0.676272500000     0.236940000000     0.957990000000     0          
T        Si     0.698640000000     0.133880000000     0.967905000000     0          
O        O      0.685340000000     0.183180000000     0.951300000000     0          
O        O      0.581355000000     0.007780000000     0.937690000000     0          
O        O      0.706475000000     0.266460000000     0.930155000000     0          
O        O      0.706365000000     0.376950000000     0.996465000000     0          
O        O      0.690502500000     0.095090000000     0.937080000000     0          
T        Si     0.551415000000     0.953870000000     0.667755000000     0          
T        Si     0.573727500000     0.763060000000     0.707990000000     0          
T        Si     0.551360000000     0.866120000000     0.717905000000     0          
O        O      0.564660000000     0.816820000000     0.701300000000     0          
O        O      0.668645000000     0.992220000000     0.687690000000     0          
O        O      0.543525000000     0.733540000000     0.680155000000     0          
O        O      0.543635000000     0.623050000000     0.746465000000     0          
O        O      0.559497500000     0.904910000000     0.687080000000     0          
T        Si     0.698585000000     0.953870000000     0.582245000000     0          
T        Si     0.676272500000     0.763060000000     0.542010000000     0          
T        Si     0.698640000000     0.866120000000     0.532095000000     0          
O        O      0.685340000000     0.816820000000     0.548700000000     0          
O        O      0.581355000000     0.992220000000     0.562310000000     0          
O        O      0.706475000000     0.733540000000     0.569845000000     0          
O        O      0.706365000000     0.623050000000     0.503535000000     0          
O        O      0.690502500000     0.904910000000     0.562920000000     0          
T        Si     0.551415000000     0.046130000000     0.832245000000     0          
T        Si     0.573727500000     0.236940000000     0.792010000000     0          
T        Si     0.551360000000     0.133880000000     0.782095000000     0          
O        O      0.564660000000     0.183180000000     0.798700000000     0          
O        O      0.668645000000     0.007780000000     0.812310000000     0          
O        O      0.543525000000     0.266460000000     0.819845000000     0          
O        O      0.543635000000     0.376950000000     0.753535000000     0          
O        O      0.559497500000     0.095090000000     0.812920000000     0          
T        Si     0.926415000000     0.453870000000     0.082245000000     0          
T        Si     0.948727500000     0.263060000000     0.042010000000     0          
T        Si     0.926360000000     0.366120000000     0.032095000000     0          
T        Si     0.875000000000     0.117690000000     0.028640000000     0          
T        Si     0.875000000000     0.205030000000     0.081275000000     0          
T        Si     0.875000000000     0.012970000000     0.043055000000     0          
O        O      0.939660000000     0.316820000000     0.048700000000     0          
O        O      0.793645000000     0.492220000000     0.062310000000     0          
O        O      0.918525000000     0.233540000000     0.069845000000     0          
O        O      0.918635000000     0.123050000000     0.003535000000     0          
O        O      0.934497500000     0.404910000000     0.062920000000     0          
O        O      0.875000000000     0.067860000000     0.047760000000     0          
O        O      0.875000000000     0.156470000000     0.060190000000     0          
O        O      0.750000000000     0.251950000000     0.050335000000     0          
O        O      0.875000000000     0.467900000000     0.079030000000     0          
O        O      0.875000000000     0.365770000000     0.020185000000     0          
O        O      0.875000000000     0.195810000000     0.125000000000     0          
O        O      0.940407500000     0.450600000000     0.125000000000     0          
O        O      0.937500000000     0.250000000000     0.000000000000     0          
O        O      0.875000000000     0.000000000000     0.000000000000     0          
T        Si     0.823585000000     0.546130000000     0.332245000000     0          
T        Si     0.801272500000     0.736940000000     0.292010000000     0          
T        Si     0.823640000000     0.633880000000     0.282095000000     0          
T        Si     0.875000000000     0.882310000000     0.278640000000     0          
T        Si     0.875000000000     0.794970000000     0.331275000000     0          
T        Si     0.875000000000     0.987030000000     0.293055000000     0          
O        O      0.810340000000     0.683180000000     0.298700000000     0          
O        O      0.956355000000     0.507780000000     0.312310000000     0          
O        O      0.831475000000     0.766460000000     0.319845000000     0          
O        O      0.831365000000     0.876950000000     0.253535000000     0          
O        O      0.815502500000     0.595090000000     0.312920000000     0          
O        O      0.875000000000     0.932140000000     0.297760000000     0          
O        O      0.875000000000     0.843530000000     0.310190000000     0          
O        O      0.750000000000     0.748050000000     0.300335000000     0          
O        O      0.875000000000     0.532100000000     0.329030000000     0          
O        O      0.875000000000     0.634230000000     0.270185000000     0          
O        O      0.875000000000     0.804190000000     0.375000000000     0          
O        O      0.809592500000     0.549400000000     0.375000000000     0          
O        O      0.812500000000     0.750000000000     0.250000000000     0          
O        O      0.875000000000     0.000000000000     0.250000000000     0          
T        Si     0.926415000000     0.546130000000     0.417755000000     0          
T        Si     0.948727500000     0.736940000000     0.457990000000     0          
T        Si     0.926360000000     0.633880000000     0.467905000000     0          
T        Si     0.875000000000     0.882310000000     0.471360000000     0          
T        Si     0.875000000000     0.794970000000     0.418725000000     0          
T        Si     0.875000000000     0.987030000000     0.456945000000     0          
O        O      0.939660000000     0.683180000000     0.451300000000     0          
O        O      0.793645000000     0.507780000000     0.437690000000     0          
O        O      0.918525000000     0.766460000000     0.430155000000     0          
O        O      0.918635000000     0.876950000000     0.496465000000     0          
O        O      0.934497500000     0.595090000000     0.437080000000     0          
O        O      0.875000000000     0.932140000000     0.452240000000     0          
O        O      0.875000000000     0.843530000000     0.439810000000     0          
O        O      0.750000000000     0.748050000000     0.449665000000     0          
O        O      0.875000000000     0.532100000000     0.420970000000     0          
O        O      0.875000000000     0.634230000000     0.479815000000     0          
O        O      0.940407500000     0.549400000000     0.375000000000     0          
O        O      0.937500000000     0.750000000000     0.000000000000     0          
T        Si     0.823585000000     0.453870000000     0.167755000000     0          
T        Si     0.801272500000     0.263060000000     0.207990000000     0          
T        Si     0.823640000000     0.366120000000     0.217905000000     0          
T        Si     0.875000000000     0.117690000000     0.221360000000     0          
T        Si     0.875000000000     0.205030000000     0.168725000000     0          
T        Si     0.875000000000     0.012970000000     0.206945000000     0          
O        O      0.810340000000     0.316820000000     0.201300000000     0          
O        O      0.956355000000     0.492220000000     0.187690000000     0          
O        O      0.831475000000     0.233540000000     0.180155000000     0          
O        O      0.831365000000     0.123050000000     0.246465000000     0          
O        O      0.815502500000     0.404910000000     0.187080000000     0          
O        O      0.875000000000     0.067860000000     0.202240000000     0          
O        O      0.875000000000     0.156470000000     0.189810000000     0          
O        O      0.750000000000     0.251950000000     0.199665000000     0          
O        O      0.875000000000     0.467900000000     0.170970000000     0          
O        O      0.875000000000     0.365770000000     0.229815000000     0          
O        O      0.809592500000     0.450600000000     0.125000000000     0          
O        O      0.812500000000     0.250000000000     0.250000000000     0          
T        Si     0.823585000000     0.546130000000     0.417755000000     0          
T        Si     0.801272500000     0.736940000000     0.457990000000     0          
T        Si     0.823640000000     0.633880000000     0.467905000000     0          
O        O      0.810340000000     0.683180000000     0.451300000000     0          
O        O      0.956355000000     0.507780000000     0.437690000000     0          
O        O      0.831475000000     0.766460000000     0.430155000000     0          
O        O      0.831365000000     0.876950000000     0.496465000000     0          
O        O      0.815502500000     0.595090000000     0.437080000000     0          
O        O      0.812500000000     0.750000000000     0.000000000000     0          
T        Si     0.926415000000     0.453870000000     0.167755000000     0          
T        Si     0.948727500000     0.263060000000     0.207990000000     0          
T        Si     0.926360000000     0.366120000000     0.217905000000     0          
O        O      0.939660000000     0.316820000000     0.201300000000     0          
O        O      0.793645000000     0.492220000000     0.187690000000     0          
O        O      0.918525000000     0.233540000000     0.180155000000     0          
O        O      0.918635000000     0.123050000000     0.246465000000     0          
O        O      0.934497500000     0.404910000000     0.187080000000     0          
O        O      0.937500000000     0.250000000000     0.250000000000     0          
T        Si     0.823585000000     0.453870000000     0.082245000000     0          
T        Si     0.801272500000     0.263060000000     0.042010000000     0          
T        Si     0.823640000000     0.366120000000     0.032095000000     0          
O        O      0.810340000000     0.316820000000     0.048700000000     0          
O        O      0.956355000000     0.492220000000     0.062310000000     0          
O        O      0.831475000000     0.233540000000     0.069845000000     0          
O        O      0.831365000000     0.123050000000     0.003535000000     0          
O        O      0.815502500000     0.404910000000     0.062920000000     0          
O        O      0.812500000000     0.250000000000     0.000000000000     0          
T        Si     0.926415000000     0.546130000000     0.332245000000     0          
T        Si     0.948727500000     0.736940000000     0.292010000000     0          
T        Si     0.926360000000     0.633880000000     0.282095000000     0          
O        O      0.939660000000     0.683180000000     0.298700000000     0          
O        O      0.793645000000     0.507780000000     0.312310000000     0          
O        O      0.918525000000     0.766460000000     0.319845000000     0          
O        O      0.918635000000     0.876950000000     0.253535000000     0          
O        O      0.934497500000     0.595090000000     0.312920000000     0          
O        O      0.937500000000     0.750000000000     0.250000000000     0          
T        Si     0.801415000000     0.953870000000     0.082245000000     0          
T        Si     0.823727500000     0.763060000000     0.042010000000     0          
T        Si     0.801360000000     0.866120000000     0.032095000000     0          
T        Si     0.750000000000     0.617690000000     0.028640000000     0          
T        Si     0.750000000000     0.705030000000     0.081275000000     0          
T        Si     0.750000000000     0.512970000000     0.043055000000     0          
O        O      0.814660000000     0.816820000000     0.048700000000     0          
O        O      0.918645000000     0.992220000000     0.062310000000     0          
O        O      0.793525000000     0.733540000000     0.069845000000     0          
O        O      0.793635000000     0.623050000000     0.003535000000     0          
O        O      0.809497500000     0.904910000000     0.062920000000     0          
O        O      0.750000000000     0.567860000000     0.047760000000     0          
O        O      0.750000000000     0.656470000000     0.060190000000     0          
O        O      0.875000000000     0.751950000000     0.050335000000     0          
O        O      0.750000000000     0.967900000000     0.079030000000     0          
O        O      0.750000000000     0.865770000000     0.020185000000     0          
O        O      0.750000000000     0.695810000000     0.125000000000     0          
O        O      0.815407500000     0.950600000000     0.125000000000     0          
O        O      0.750000000000     0.500000000000     0.000000000000     0          
T        Si     0.948585000000     0.046130000000     0.332245000000     0          
T        Si     0.926272500000     0.236940000000     0.292010000000     0          
T        Si     0.948640000000     0.133880000000     0.282095000000     0          
T        Si     0.750000000000     0.382310000000     0.278640000000     0          
T        Si     0.750000000000     0.294970000000     0.331275000000     0          
T        Si     0.750000000000     0.487030000000     0.293055000000     0          
O        O      0.935340000000     0.183180000000     0.298700000000     0          
O        O      0.831355000000     0.007780000000     0.312310000000     0          
O        O      0.956475000000     0.266460000000     0.319845000000     0          
O        O      0.956365000000     0.376950000000     0.253535000000     0          
O        O      0.940502500000     0.095090000000     0.312920000000     0          
O        O      0.750000000000     0.432140000000     0.297760000000     0          
O        O      0.750000000000     0.343530000000     0.310190000000     0          
O        O      0.875000000000     0.248050000000     0.300335000000     0          
O        O      0.750000000000     0.032100000000     0.329030000000     0          
O        O      0.750000000000     0.134230000000     0.270185000000     0          
O        O      0.750000000000     0.304190000000     0.375000000000     0          
O        O      0.934592500000     0.049400000000     0.375000000000     0          
O        O      0.750000000000     0.500000000000     0.250000000000     0          
T        Si     0.801415000000     0.046130000000     0.417755000000     0          
T        Si     0.823727500000     0.236940000000     0.457990000000     0          
T        Si     0.801360000000     0.133880000000     0.467905000000     0          
T        Si     0.750000000000     0.382310000000     0.471360000000     0          
T        Si     0.750000000000     0.294970000000     0.418725000000     0          
T        Si     0.750000000000     0.487030000000     0.456945000000     0          
O        O      0.814660000000     0.183180000000     0.451300000000     0          
O        O      0.918645000000     0.007780000000     0.437690000000     0          
O        O      0.793525000000     0.266460000000     0.430155000000     0          
O        O      0.793635000000     0.376950000000     0.496465000000     0          
O        O      0.809497500000     0.095090000000     0.437080000000     0          
O        O      0.750000000000     0.432140000000     0.452240000000     0          
O        O      0.750000000000     0.343530000000     0.439810000000     0          
O        O      0.875000000000     0.248050000000     0.449665000000     0          
O        O      0.750000000000     0.032100000000     0.420970000000     0          
O        O      0.750000000000     0.134230000000     0.479815000000     0          
O        O      0.815407500000     0.049400000000     0.375000000000     0          
T        Si     0.948585000000     0.953870000000     0.167755000000     0          
T        Si     0.926272500000     0.763060000000     0.207990000000     0          
T        Si     0.948640000000     0.866120000000     0.217905000000     0          
T        Si     0.750000000000     0.617690000000     0.221360000000     0          
T        Si     0.750000000000     0.705030000000     0.168725000000     0          
T        Si     0.750000000000     0.512970000000     0.206945000000     0          
O        O      0.935340000000     0.816820000000     0.201300000000     0          
O        O      0.831355000000     0.992220000000     0.187690000000     0          
O        O      0.956475000000     0.733540000000     0.180155000000     0          
O        O      0.956365000000     0.623050000000     0.246465000000     0          
O        O      0.940502500000     0.904910000000     0.187080000000     0          
O        O      0.750000000000     0.567860000000     0.202240000000     0          
O        O      0.750000000000     0.656470000000     0.189810000000     0          
O        O      0.875000000000     0.751950000000     0.199665000000     0          
O        O      0.750000000000     0.967900000000     0.170970000000     0          
O        O      0.750000000000     0.865770000000     0.229815000000     0          
O        O      0.934592500000     0.950600000000     0.125000000000     0          
T        Si     0.948585000000     0.046130000000     0.417755000000     0          
T        Si     0.926272500000     0.236940000000     0.457990000000     0          
T        Si     0.948640000000     0.133880000000     0.467905000000     0          
O        O      0.935340000000     0.183180000000     0.451300000000     0          
O        O      0.831355000000     0.007780000000     0.437690000000     0          
O        O      0.956475000000     0.266460000000     0.430155000000     0          
O        O      0.956365000000     0.376950000000     0.496465000000     0          
O        O      0.940502500000     0.095090000000     0.437080000000     0          
T        Si     0.801415000000     0.953870000000     0.167755000000     0          
T        Si     0.823727500000     0.763060000000     0.207990000000     0          
T        Si     0.801360000000     0.866120000000     0.217905000000     0          
O        O      0.814660000000     0.816820000000     0.201300000000     0          
O        O      0.918645000000     0.992220000000     0.187690000000     0          
O        O      0.793525000000     0.733540000000     0.180155000000     0          
O        O      0.793635000000     0.623050000000     0.246465000000     0          
O        O      0.809497500000     0.904910000000     0.187080000000     0          
T        Si     0.948585000000     0.953870000000     0.082245000000     0          
T        Si     0.926272500000     0.763060000000     0.042010000000     0          
T        Si     0.948640000000     0.866120000000     0.032095000000     0          
O        O      0.935340000000     0.816820000000     0.048700000000     0          
O        O      0.831355000000     0.992220000000     0.062310000000     0          
O        O      0.956475000000     0.733540000000     0.069845000000     0          
O        O      0.956365000000     0.623050000000     0.003535000000     0          
O        O      0.940502500000     0.904910000000     0.062920000000     0          
T        Si     0.801415000000     0.046130000000     0.332245000000     0          
T        Si     0.823727500000     0.236940000000     0.292010000000     0          
T        Si     0.801360000000     0.133880000000     0.282095000000     0          
O        O      0.814660000000     0.183180000000     0.298700000000     0          
O        O      0.918645000000     0.007780000000     0.312310000000     0          
O        O      0.793525000000     0.266460000000     0.319845000000     0          
O        O      0.793635000000     0.376950000000     0.253535000000     0          
O        O      0.809497500000     0.095090000000     0.312920000000     0          
T        Si     0.926415000000     0.453870000000     0.582245000000     0          
T        Si     0.948727500000     0.263060000000     0.542010000000     0          
T        Si     0.926360000000     0.366120000000     0.532095000000     0          
T        Si     0.875000000000     0.117690000000     0.528640000000     0          
T        Si     0.875000000000     0.205030000000     0.581275000000     0          
T        Si     0.875000000000     0.012970000000     0.543055000000     0          
O        O      0.939660000000     0.316820000000     0.548700000000     0          
O        O      0.793645000000     0.492220000000     0.562310000000     0          
O        O      0.918525000000     0.233540000000     0.569845000000     0          
O        O      0.918635000000     0.123050000000     0.503535000000     0          
O        O      0.934497500000     0.404910000000     0.562920000000     0          
O        O      0.875000000000     0.067860000000     0.547760000000     0          
O        O      0.875000000000     0.156470000000     0.560190000000     0          
O        O      0.750000000000     0.251950000000     0.550335000000     0          
O        O      0.875000000000     0.467900000000     0.579030000000     0          
O        O      0.875000000000     0.365770000000     0.520185000000     0          
O        O      0.875000000000     0.195810000000     0.625000000000     0          
O        O      0.940407500000     0.450600000000     0.625000000000     0          
O        O      0.937500000000     0.250000000000     0.500000000000     0          
O        O      0.875000000000     0.000000000000     0.500000000000     0          
T        Si     0.823585000000     0.546130000000     0.832245000000     0          
T        Si     0.801272500000     0.736940000000     0.792010000000     0          
T        Si     0.823640000000     0.633880000000     0.782095000000     0          
T        Si     0.875000000000     0.882310000000     0.778640000000     0          
T        Si     0.875000000000     0.794970000000     0.831275000000     0          
T        Si     0.875000000000     0.987030000000     0.793055000000     0          
O        O      0.810340000000     0.683180000000     0.798700000000     0          
O        O      0.956355000000     0.507780000000     0.812310000000     0          
O        O      0.831475000000     0.766460000000     0.819845000000     0          
O        O      0.831365000000     0.876950000000     0.753535000000     0          
O        O      0.815502500000     0.595090000000     0.812920000000     0          
O        O      0.875000000000     0.932140000000     0.797760000000     0          
O        O      0.875000000000     0.843530000000     0.810190000000     0          
O        O      0.750000000000     0.748050000000     0.800335000000     0          
O        O      0.875000000000     0.532100000000     0.829030000000     0          
O        O      0.875000000000     0.634230000000     0.770185000000     0          
O        O      0.875000000000     0.804190000000     0.875000000000     0          
O        O      0.809592500000     0.549400000000     0.875000000000     0          
O        O      0.812500000000     0.750000000000     0.750000000000     0          
O        O      0.875000000000     0.000000000000     0.750000000000     0          
T        Si     0.926415000000     0.546130000000     0.917755000000     0          
T        Si     0.948727500000     0.736940000000     0.957990000000     0          
T        Si     0.926360000000     0.633880000000     0.967905000000     0          
T        Si     0.875000000000     0.882310000000     0.971360000000     0          
T        Si     0.875000000000     0.794970000000     0.918725000000     0          
T        Si     0.875000000000     0.987030000000     0.956945000000     0          
O        O      0.939660000000     0.683180000000     0.951300000000     0          
O        O      0.793645000000     0.507780000000     0.937690000000     0          
O        O      0.918525000000     0.766460000000     0.930155000000     0          
O        O      0.918635000000     0.876950000000     0.996465000000     0          
O        O      0.934497500000     0.595090000000     0.937080000000     0          
O        O      0.875000000000     0.932140000000     0.952240000000     0          
O        O      0.875000000000     0.843530000000     0.939810000000     0          
O        O      0.750000000000     0.748050000000     0.949665000000     0          
O        O      0.875000000000     0.532100000000     0.920970000000     0          
O        O      0.875000000000     0.634230000000     0.979815000000     0          
O        O      0.940407500000     0.549400000000     0.875000000000     0          
O        O      0.937500000000     0.750000000000     0.500000000000     0          
T        Si     0.823585000000     0.453870000000     0.667755000000     0          
T        Si     0.801272500000     0.263060000000     0.707990000000     0          
T        Si     0.823640000000     0.366120000000     0.717905000000     0          
T        Si     0.875000000000     0.117690000000     0.721360000000     0          
T        Si     0.875000000000     0.205030000000     0.668725000000     0          
T        Si     0.875000000000     0.012970000000     0.706945000000     0          
O        O      0.810340000000     0.316820000000     0.701300000000     0          
O        O      0.956355000000     0.492220000000     0.687690000000     0          
O        O      0.831475000000     0.233540000000     0.680155000000     0          
O        O      0.831365000000     0.123050000000     0.746465000000     0          
O        O      0.815502500000     0.404910000000     0.687080000000     0          
O        O      0.875000000000     0.067860000000     0.702240000000     0          
O        O      0.875000000000     0.156470000000     0.689810000000     0          
O        O      0.750000000000     0.251950000000     0.699665000000     0          
O        O      0.875000000000     0.467900000000     0.670970000000     0          
O        O      0.875000000000     0.365770000000     0.729815000000     0          
O        O      0.809592500000     0.450600000000     0.625000000000     0          
O        O      0.812500000000     0.250000000000     0.750000000000     0          
T        Si     0.823585000000     0.546130000000     0.917755000000     0          
T        Si     0.801272500000     0.736940000000     0.957990000000     0          
T        Si     0.823640000000     0.633880000000     0.967905000000     0          
O        O      0.810340000000     0.683180000000     0.951300000000     0          
O        O      0.956355000000     0.507780000000     0.937690000000     0          
O        O      0.831475000000     0.766460000000     0.930155000000     0          
O        O      0.831365000000     0.876950000000     0.996465000000     0          
O        O      0.815502500000     0.595090000000     0.937080000000     0          
O        O      0.812500000000     0.750000000000     0.500000000000     0          
T        Si     0.926415000000     0.453870000000     0.667755000000     0          
T        Si     0.948727500000     0.263060000000     0.707990000000     0          
T        Si     0.926360000000     0.366120000000     0.717905000000     0          
O        O      0.939660000000     0.316820000000     0.701300000000     0          
O        O      0.793645000000     0.492220000000     0.687690000000     0          
O        O      0.918525000000     0.233540000000     0.680155000000     0          
O        O      0.918635000000     0.123050000000     0.746465000000     0          
O        O      0.934497500000     0.404910000000     0.687080000000     0          
O        O      0.937500000000     0.250000000000     0.750000000000     0          
T        Si     0.823585000000     0.453870000000     0.582245000000     0          
T        Si     0.801272500000     0.263060000000     0.542010000000     0          
T        Si     0.823640000000     0.366120000000     0.532095000000     0          
O        O      0.810340000000     0.316820000000     0.548700000000     0          
O        O      0.956355000000     0.492220000000     0.562310000000     0          
O        O      0.831475000000     0.233540000000     0.569845000000     0          
O        O      0.831365000000     0.123050000000     0.503535000000     0          
O        O      0.815502500000     0.404910000000     0.562920000000     0          
O        O      0.812500000000     0.250000000000     0.500000000000     0          
T        Si     0.926415000000     0.546130000000     0.832245000000     0          
T        Si     0.948727500000     0.736940000000     0.792010000000     0          
T        Si     0.926360000000     0.633880000000     0.782095000000     0          
O        O      0.939660000000     0.683180000000     0.798700000000     0          
O        O      0.793645000000     0.507780000000     0.812310000000     0          
O        O      0.918525000000     0.766460000000     0.819845000000     0          
O        O      0.918635000000     0.876950000000     0.753535000000     0          
O        O      0.934497500000     0.595090000000     0.812920000000     0          
O        O      0.937500000000     0.750000000000     0.750000000000     0          
T        Si     0.801415000000     0.953870000000     0.582245000000     0          
T        Si     0.823727500000     0.763060000000     0.542010000000     0          
T        Si     0.801360000000     0.866120000000     0.532095000000     0          
T        Si     0.750000000000     0.617690000000     0.528640000000     0          
T        Si     0.750000000000     0.705030000000     0.581275000000     0          
T        Si     0.750000000000     0.512970000000     0.543055000000     0          
O        O      0.814660000000     0.816820000000     0.548700000000     0          
O        O      0.918645000000     0.992220000000     0.562310000000     0          
O        O      0.793525000000     0.733540000000     0.569845000000     0          
O        O      0.793635000000     0.623050000000     0.503535000000     0          
O        O      0.809497500000     0.904910000000     0.562920000000     0          
O        O      0.750000000000     0.567860000000     0.547760000000     0          
O        O      0.750000000000     0.656470000000     0.560190000000     0          
O        O      0.875000000000     0.751950000000     0.550335000000     0          
O        O      0.750000000000     0.967900000000     0.579030000000     0          
O        O      0.750000000000     0.865770000000     0.520185000000     0          
O        O      0.750000000000     0.695810000000     0.625000000000     0          
O        O      0.815407500000     0.950600000000     0.625000000000     0          
O        O      0.750000000000     0.500000000000     0.500000000000     0          
T        Si     0.948585000000     0.046130000000     0.832245000000     0          
T        Si     0.926272500000     0.236940000000     0.792010000000     0          
T        Si     0.948640000000     0.133880000000     0.782095000000     0          
T        Si     0.750000000000     0.382310000000     0.778640000000     0          
T        Si     0.750000000000     0.294970000000     0.831275000000     0          
T        Si     0.750000000000     0.487030000000     0.793055000000     0          
O        O      0.935340000000     0.183180000000     0.798700000000     0          
O        O      0.831355000000     0.007780000000     0.812310000000     0          
O        O      0.956475000000     0.266460000000     0.819845000000     0          
O        O      0.956365000000     0.376950000000     0.753535000000     0          
O        O      0.940502500000     0.095090000000     0.812920000000     0          
O        O      0.750000000000     0.432140000000     0.797760000000     0          
O        O      0.750000000000     0.343530000000     0.810190000000     0          
O        O      0.875000000000     0.248050000000     0.800335000000     0          
O        O      0.750000000000     0.032100000000     0.829030000000     0          
O        O      0.750000000000     0.134230000000     0.770185000000     0          
O        O      0.750000000000     0.304190000000     0.875000000000     0          
O        O      0.934592500000     0.049400000000     0.875000000000     0          
O        O      0.750000000000     0.500000000000     0.750000000000     0          
T        Si     0.801415000000     0.046130000000     0.917755000000     0          
T        Si     0.823727500000     0.236940000000     0.957990000000     0          
T        Si     0.801360000000     0.133880000000     0.967905000000     0          
T        Si     0.750000000000     0.382310000000     0.971360000000     0          
T        Si     0.750000000000     0.294970000000     0.918725000000     0          
T        Si     0.750000000000     0.487030000000     0.956945000000     0          
O        O      0.814660000000     0.183180000000     0.951300000000     0          
O        O      0.918645000000     0.007780000000     0.937690000000     0          
O        O      0.793525000000     0.266460000000     0.930155000000     0          
O        O      0.793635000000     0.376950000000     0.996465000000     0          
O        O      0.809497500000     0.095090000000     0.937080000000     0          
O        O      0.750000000000     0.432140000000     0.952240000000     0          
O        O      0.750000000000     0.343530000000     0.939810000000     0          
O        O      0.875000000000     0.248050000000     0.949665000000     0          
O        O      0.750000000000     0.032100000000     0.920970000000     0          
O        O      0.750000000000     0.134230000000     0.979815000000     0          
O        O      0.815407500000     0.049400000000     0.875000000000     0          
T        Si     0.948585000000     0.953870000000     0.667755000000     0          
T        Si     0.926272500000     0.763060000000     0.707990000000     0          
T        Si     0.948640000000     0.866120000000     0.717905000000     0          
T        Si     0.750000000000     0.617690000000     0.721360000000     0          
T        Si     0.750000000000     0.705030000000     0.668725000000     0          
T        Si     0.750000000000     0.512970000000     0.706945000000     0          
O        O      0.935340000000     0.816820000000     0.701300000000     0          
O        O      0.831355000000     0.992220000000     0.687690000000     0          
O        O      0.956475000000     0.733540000000     0.680155000000     0          
O        O      0.956365000000     0.623050000000     0.746465000000     0          
O        O      0.940502500000     0.904910000000     0.687080000000     0          
O        O      0.750000000000     0.567860000000     0.702240000000     0          
O        O      0.750000000000     0.656470000000     0.689810000000     0          
O        O      0.875000000000     0.751950000000     0.699665000000     0          
O        O      0.750000000000     0.967900000000     0.670970000000     0          
O        O      0.750000000000     0.865770000000     0.729815000000     0          
O        O      0.934592500000     0.950600000000     0.625000000000     0          
T        Si     0.948585000000     0.046130000000     0.917755000000     0          
T        Si     0.926272500000     0.236940000000     0.957990000000     0          
T        Si     0.948640000000     0.133880000000     0.967905000000     0          
O        O      0.935340000000     0.183180000000     0.951300000000     0          
O        O      0.831355000000     0.007780000000     0.937690000000     0          
O        O      0.956475000000     0.266460000000     0.930155000000     0          
O        O      0.956365000000     0.376950000000     0.996465000000     0          
O        O      0.940502500000     0.095090000000     0.937080000000     0          
T        Si     0.801415000000     0.953870000000     0.667755000000     0          
T        Si     0.823727500000     0.763060000000     0.707990000000     0          
T        Si     0.801360000000     0.866120000000     0.717905000000     0          
O        O      0.814660000000     0.816820000000     0.701300000000     0          
O        O      0.918645000000     0.992220000000     0.687690000000     0          
O        O      0.793525000000     0.733540000000     0.680155000000     0          
O        O      0.793635000000     0.623050000000     0.746465000000     0          
O        O      0.809497500000     0.904910000000     0.687080000000     0          
T        Si     0.948585000000     0.953870000000     0.582245000000     0          
T        Si     0.926272500000     0.763060000000     0.542010000000     0          
T        Si     0.948640000000     0.866120000000     0.532095000000     0          
O        O      0.935340000000     0.816820000000     0.548700000000     0          
O        O      0.831355000000     0.992220000000     0.562310000000     0          
O        O      0.956475000000     0.733540000000     0.569845000000     0          
O        O      0.956365000000     0.623050000000     0.503535000000     0          
O        O      0.940502500000     0.904910000000     0.562920000000     0          
T        Si     0.801415000000     0.046130000000     0.832245000000     0          
T        Si     0.823727500000     0.236940000000     0.792010000000     0          
T        Si     0.801360000000     0.133880000000     0.782095000000     0          
O        O      0.814660000000     0.183180000000     0.798700000000     0          
O        O      0.918645000000     0.007780000000     0.812310000000     0          
O        O      0.793525000000     0.266460000000     0.819845000000     0          
O        O      0.793635000000     0.376950000000     0.753535000000     0          
O        O      0.809497500000     0.095090000000     0.812920000000     0          


