data_zeolite

_audit_creation_method RASPA-1.0
_audit_creation_date 2021-6-7
_audit_author_name ''

_cell_length_a    13.8968
_cell_length_b    17.4548
_cell_length_c    5.1892
_cell_angle_alpha 90
_cell_angle_beta  90
_cell_angle_gamma 90
_cell_volume      25174.5

_symmetry_cell_setting          orthorhombic
_symmetry_space_group_name_Hall 'P 1'
_symmetry_space_group_name_H-M  'P 1'
_symmetry_Int_Tables_number     1

_symmetry_equiv_pos_as_xyz 'x,y,z'

loop_
_atom_site_label
_atom_site_type_symbol
_atom_site_fract_x
_atom_site_fract_y
_atom_site_fract_z
_atom_site_charge
T        Si     0.104400000000     0.167800000000     0.191660000000     0          
T        Si     0.102150000000     0.045550000000     0.091740000000     0          
T        Si     0.000000000000     0.085900000000     0.100000000000     0          
T        Si     0.000000000000     0.140250000000     0.000000000000     0          
T        Si     0.395600000000     0.332200000000     0.191660000000     0          
T        Si     0.397850000000     0.454450000000     0.091740000000     0          
T        Si     0.000000000000     0.414100000000     0.100000000000     0          
T        Si     0.000000000000     0.359750000000     0.000000000000     0          
T        Si     0.104400000000     0.332200000000     0.008340000000     0          
T        Si     0.102150000000     0.454450000000     0.108260000000     0          
T        Si     0.395600000000     0.167800000000     0.008340000000     0          
T        Si     0.397850000000     0.045550000000     0.108260000000     0          
T        Si     0.354400000000     0.417800000000     0.191660000000     0          
T        Si     0.352150000000     0.295550000000     0.091740000000     0          
T        Si     0.250000000000     0.335900000000     0.100000000000     0          
T        Si     0.250000000000     0.390250000000     0.000000000000     0          
T        Si     0.145600000000     0.082200000000     0.191660000000     0          
T        Si     0.147850000000     0.204450000000     0.091740000000     0          
T        Si     0.250000000000     0.164100000000     0.100000000000     0          
T        Si     0.250000000000     0.109750000000     0.000000000000     0          
T        Si     0.354400000000     0.082200000000     0.008340000000     0          
T        Si     0.352150000000     0.204450000000     0.108260000000     0          
T        Si     0.145600000000     0.417800000000     0.008340000000     0          
T        Si     0.147850000000     0.295550000000     0.108260000000     0          
T        Si     0.104400000000     0.167800000000     0.391660000000     0          
T        Si     0.102150000000     0.045550000000     0.291740000000     0          
T        Si     0.000000000000     0.085900000000     0.300000000000     0          
T        Si     0.000000000000     0.140250000000     0.200000000000     0          
T        Si     0.395600000000     0.332200000000     0.391660000000     0          
T        Si     0.397850000000     0.454450000000     0.291740000000     0          
T        Si     0.000000000000     0.414100000000     0.300000000000     0          
T        Si     0.000000000000     0.359750000000     0.200000000000     0          
T        Si     0.104400000000     0.332200000000     0.208340000000     0          
T        Si     0.102150000000     0.454450000000     0.308260000000     0          
T        Si     0.395600000000     0.167800000000     0.208340000000     0          
T        Si     0.397850000000     0.045550000000     0.308260000000     0          
T        Si     0.354400000000     0.417800000000     0.391660000000     0          
T        Si     0.352150000000     0.295550000000     0.291740000000     0          
T        Si     0.250000000000     0.335900000000     0.300000000000     0          
T        Si     0.250000000000     0.390250000000     0.200000000000     0          
T        Si     0.145600000000     0.082200000000     0.391660000000     0          
T        Si     0.147850000000     0.204450000000     0.291740000000     0          
T        Si     0.250000000000     0.164100000000     0.300000000000     0          
T        Si     0.250000000000     0.109750000000     0.200000000000     0          
T        Si     0.354400000000     0.082200000000     0.208340000000     0          
T        Si     0.352150000000     0.204450000000     0.308260000000     0          
T        Si     0.145600000000     0.417800000000     0.208340000000     0          
T        Si     0.147850000000     0.295550000000     0.308260000000     0          
T        Si     0.104400000000     0.167800000000     0.591660000000     0          
T        Si     0.102150000000     0.045550000000     0.491740000000     0          
T        Si     0.000000000000     0.085900000000     0.500000000000     0          
T        Si     0.000000000000     0.140250000000     0.400000000000     0          
T        Si     0.395600000000     0.332200000000     0.591660000000     0          
T        Si     0.397850000000     0.454450000000     0.491740000000     0          
T        Si     0.000000000000     0.414100000000     0.500000000000     0          
T        Si     0.000000000000     0.359750000000     0.400000000000     0          
T        Si     0.104400000000     0.332200000000     0.408340000000     0          
T        Si     0.102150000000     0.454450000000     0.508260000000     0          
T        Si     0.395600000000     0.167800000000     0.408340000000     0          
T        Si     0.397850000000     0.045550000000     0.508260000000     0          
T        Si     0.354400000000     0.417800000000     0.591660000000     0          
T        Si     0.352150000000     0.295550000000     0.491740000000     0          
T        Si     0.250000000000     0.335900000000     0.500000000000     0          
T        Si     0.250000000000     0.390250000000     0.400000000000     0          
T        Si     0.145600000000     0.082200000000     0.591660000000     0          
T        Si     0.147850000000     0.204450000000     0.491740000000     0          
T        Si     0.250000000000     0.164100000000     0.500000000000     0          
T        Si     0.250000000000     0.109750000000     0.400000000000     0          
T        Si     0.354400000000     0.082200000000     0.408340000000     0          
T        Si     0.352150000000     0.204450000000     0.508260000000     0          
T        Si     0.145600000000     0.417800000000     0.408340000000     0          
T        Si     0.147850000000     0.295550000000     0.508260000000     0          
T        Si     0.104400000000     0.167800000000     0.791660000000     0          
T        Si     0.102150000000     0.045550000000     0.691740000000     0          
T        Si     0.000000000000     0.085900000000     0.700000000000     0          
T        Si     0.000000000000     0.140250000000     0.600000000000     0          
T        Si     0.395600000000     0.332200000000     0.791660000000     0          
T        Si     0.397850000000     0.454450000000     0.691740000000     0          
T        Si     0.000000000000     0.414100000000     0.700000000000     0          
T        Si     0.000000000000     0.359750000000     0.600000000000     0          
T        Si     0.104400000000     0.332200000000     0.608340000000     0          
T        Si     0.102150000000     0.454450000000     0.708260000000     0          
T        Si     0.395600000000     0.167800000000     0.608340000000     0          
T        Si     0.397850000000     0.045550000000     0.708260000000     0          
T        Si     0.354400000000     0.417800000000     0.791660000000     0          
T        Si     0.352150000000     0.295550000000     0.691740000000     0          
T        Si     0.250000000000     0.335900000000     0.700000000000     0          
T        Si     0.250000000000     0.390250000000     0.600000000000     0          
T        Si     0.145600000000     0.082200000000     0.791660000000     0          
T        Si     0.147850000000     0.204450000000     0.691740000000     0          
T        Si     0.250000000000     0.164100000000     0.700000000000     0          
T        Si     0.250000000000     0.109750000000     0.600000000000     0          
T        Si     0.354400000000     0.082200000000     0.608340000000     0          
T        Si     0.352150000000     0.204450000000     0.708260000000     0          
T        Si     0.145600000000     0.417800000000     0.608340000000     0          
T        Si     0.147850000000     0.295550000000     0.708260000000     0          
T        Si     0.104400000000     0.167800000000     0.991660000000     0          
T        Si     0.102150000000     0.045550000000     0.891740000000     0          
T        Si     0.000000000000     0.085900000000     0.900000000000     0          
T        Si     0.000000000000     0.140250000000     0.800000000000     0          
T        Si     0.395600000000     0.332200000000     0.991660000000     0          
T        Si     0.397850000000     0.454450000000     0.891740000000     0          
T        Si     0.000000000000     0.414100000000     0.900000000000     0          
T        Si     0.000000000000     0.359750000000     0.800000000000     0          
T        Si     0.104400000000     0.332200000000     0.808340000000     0          
T        Si     0.102150000000     0.454450000000     0.908260000000     0          
T        Si     0.395600000000     0.167800000000     0.808340000000     0          
T        Si     0.397850000000     0.045550000000     0.908260000000     0          
T        Si     0.354400000000     0.417800000000     0.991660000000     0          
T        Si     0.352150000000     0.295550000000     0.891740000000     0          
T        Si     0.250000000000     0.335900000000     0.900000000000     0          
T        Si     0.250000000000     0.390250000000     0.800000000000     0          
T        Si     0.145600000000     0.082200000000     0.991660000000     0          
T        Si     0.147850000000     0.204450000000     0.891740000000     0          
T        Si     0.250000000000     0.164100000000     0.900000000000     0          
T        Si     0.250000000000     0.109750000000     0.800000000000     0          
T        Si     0.354400000000     0.082200000000     0.808340000000     0          
T        Si     0.352150000000     0.204450000000     0.908260000000     0          
T        Si     0.145600000000     0.417800000000     0.808340000000     0          
T        Si     0.147850000000     0.295550000000     0.908260000000     0          
T        Si     0.104400000000     0.667800000000     0.191660000000     0          
T        Si     0.102150000000     0.545550000000     0.091740000000     0          
T        Si     0.000000000000     0.585900000000     0.100000000000     0          
T        Si     0.000000000000     0.640250000000     0.000000000000     0          
T        Si     0.395600000000     0.832200000000     0.191660000000     0          
T        Si     0.397850000000     0.954450000000     0.091740000000     0          
T        Si     0.000000000000     0.914100000000     0.100000000000     0          
T        Si     0.000000000000     0.859750000000     0.000000000000     0          
T        Si     0.104400000000     0.832200000000     0.008340000000     0          
T        Si     0.102150000000     0.954450000000     0.108260000000     0          
T        Si     0.395600000000     0.667800000000     0.008340000000     0          
T        Si     0.397850000000     0.545550000000     0.108260000000     0          
T        Si     0.354400000000     0.917800000000     0.191660000000     0          
T        Si     0.352150000000     0.795550000000     0.091740000000     0          
T        Si     0.250000000000     0.835900000000     0.100000000000     0          
T        Si     0.250000000000     0.890250000000     0.000000000000     0          
T        Si     0.145600000000     0.582200000000     0.191660000000     0          
T        Si     0.147850000000     0.704450000000     0.091740000000     0          
T        Si     0.250000000000     0.664100000000     0.100000000000     0          
T        Si     0.250000000000     0.609750000000     0.000000000000     0          
T        Si     0.354400000000     0.582200000000     0.008340000000     0          
T        Si     0.352150000000     0.704450000000     0.108260000000     0          
T        Si     0.145600000000     0.917800000000     0.008340000000     0          
T        Si     0.147850000000     0.795550000000     0.108260000000     0          
T        Si     0.104400000000     0.667800000000     0.391660000000     0          
T        Si     0.102150000000     0.545550000000     0.291740000000     0          
T        Si     0.000000000000     0.585900000000     0.300000000000     0          
T        Si     0.000000000000     0.640250000000     0.200000000000     0          
T        Si     0.395600000000     0.832200000000     0.391660000000     0          
T        Si     0.397850000000     0.954450000000     0.291740000000     0          
T        Si     0.000000000000     0.914100000000     0.300000000000     0          
T        Si     0.000000000000     0.859750000000     0.200000000000     0          
T        Si     0.104400000000     0.832200000000     0.208340000000     0          
T        Si     0.102150000000     0.954450000000     0.308260000000     0          
T        Si     0.395600000000     0.667800000000     0.208340000000     0          
T        Si     0.397850000000     0.545550000000     0.308260000000     0          
T        Si     0.354400000000     0.917800000000     0.391660000000     0          
T        Si     0.352150000000     0.795550000000     0.291740000000     0          
T        Si     0.250000000000     0.835900000000     0.300000000000     0          
T        Si     0.250000000000     0.890250000000     0.200000000000     0          
T        Si     0.145600000000     0.582200000000     0.391660000000     0          
T        Si     0.147850000000     0.704450000000     0.291740000000     0          
T        Si     0.250000000000     0.664100000000     0.300000000000     0          
T        Si     0.250000000000     0.609750000000     0.200000000000     0          
T        Si     0.354400000000     0.582200000000     0.208340000000     0          
T        Si     0.352150000000     0.704450000000     0.308260000000     0          
T        Si     0.145600000000     0.917800000000     0.208340000000     0          
T        Si     0.147850000000     0.795550000000     0.308260000000     0          
T        Si     0.104400000000     0.667800000000     0.591660000000     0          
T        Si     0.102150000000     0.545550000000     0.491740000000     0          
T        Si     0.000000000000     0.585900000000     0.500000000000     0          
T        Si     0.000000000000     0.640250000000     0.400000000000     0          
T        Si     0.395600000000     0.832200000000     0.591660000000     0          
T        Si     0.397850000000     0.954450000000     0.491740000000     0          
T        Si     0.000000000000     0.914100000000     0.500000000000     0          
T        Si     0.000000000000     0.859750000000     0.400000000000     0          
T        Si     0.104400000000     0.832200000000     0.408340000000     0          
T        Si     0.102150000000     0.954450000000     0.508260000000     0          
T        Si     0.395600000000     0.667800000000     0.408340000000     0          
T        Si     0.397850000000     0.545550000000     0.508260000000     0          
T        Si     0.354400000000     0.917800000000     0.591660000000     0          
T        Si     0.352150000000     0.795550000000     0.491740000000     0          
T        Si     0.250000000000     0.835900000000     0.500000000000     0          
T        Si     0.250000000000     0.890250000000     0.400000000000     0          
T        Si     0.145600000000     0.582200000000     0.591660000000     0          
T        Si     0.147850000000     0.704450000000     0.491740000000     0          
T        Si     0.250000000000     0.664100000000     0.500000000000     0          
T        Si     0.250000000000     0.609750000000     0.400000000000     0          
T        Si     0.354400000000     0.582200000000     0.408340000000     0          
T        Si     0.352150000000     0.704450000000     0.508260000000     0          
T        Si     0.145600000000     0.917800000000     0.408340000000     0          
T        Si     0.147850000000     0.795550000000     0.508260000000     0          
T        Si     0.104400000000     0.667800000000     0.791660000000     0          
T        Si     0.102150000000     0.545550000000     0.691740000000     0          
T        Si     0.000000000000     0.585900000000     0.700000000000     0          
T        Si     0.000000000000     0.640250000000     0.600000000000     0          
T        Si     0.395600000000     0.832200000000     0.791660000000     0          
T        Si     0.397850000000     0.954450000000     0.691740000000     0          
T        Si     0.000000000000     0.914100000000     0.700000000000     0          
T        Si     0.000000000000     0.859750000000     0.600000000000     0          
T        Si     0.104400000000     0.832200000000     0.608340000000     0          
T        Si     0.102150000000     0.954450000000     0.708260000000     0          
T        Si     0.395600000000     0.667800000000     0.608340000000     0          
T        Si     0.397850000000     0.545550000000     0.708260000000     0          
T        Si     0.354400000000     0.917800000000     0.791660000000     0          
T        Si     0.352150000000     0.795550000000     0.691740000000     0          
T        Si     0.250000000000     0.835900000000     0.700000000000     0          
T        Si     0.250000000000     0.890250000000     0.600000000000     0          
T        Si     0.145600000000     0.582200000000     0.791660000000     0          
T        Si     0.147850000000     0.704450000000     0.691740000000     0          
T        Si     0.250000000000     0.664100000000     0.700000000000     0          
T        Si     0.250000000000     0.609750000000     0.600000000000     0          
T        Si     0.354400000000     0.582200000000     0.608340000000     0          
T        Si     0.352150000000     0.704450000000     0.708260000000     0          
T        Si     0.145600000000     0.917800000000     0.608340000000     0          
T        Si     0.147850000000     0.795550000000     0.708260000000     0          
T        Si     0.104400000000     0.667800000000     0.991660000000     0          
T        Si     0.102150000000     0.545550000000     0.891740000000     0          
T        Si     0.000000000000     0.585900000000     0.900000000000     0          
T        Si     0.000000000000     0.640250000000     0.800000000000     0          
T        Si     0.395600000000     0.832200000000     0.991660000000     0          
T        Si     0.397850000000     0.954450000000     0.891740000000     0          
T        Si     0.000000000000     0.914100000000     0.900000000000     0          
T        Si     0.000000000000     0.859750000000     0.800000000000     0          
T        Si     0.104400000000     0.832200000000     0.808340000000     0          
T        Si     0.102150000000     0.954450000000     0.908260000000     0          
T        Si     0.395600000000     0.667800000000     0.808340000000     0          
T        Si     0.397850000000     0.545550000000     0.908260000000     0          
T        Si     0.354400000000     0.917800000000     0.991660000000     0          
T        Si     0.352150000000     0.795550000000     0.891740000000     0          
T        Si     0.250000000000     0.835900000000     0.900000000000     0          
T        Si     0.250000000000     0.890250000000     0.800000000000     0          
T        Si     0.145600000000     0.582200000000     0.991660000000     0          
T        Si     0.147850000000     0.704450000000     0.891740000000     0          
T        Si     0.250000000000     0.664100000000     0.900000000000     0          
T        Si     0.250000000000     0.609750000000     0.800000000000     0          
T        Si     0.354400000000     0.582200000000     0.808340000000     0          
T        Si     0.352150000000     0.704450000000     0.908260000000     0          
T        Si     0.145600000000     0.917800000000     0.808340000000     0          
T        Si     0.147850000000     0.795550000000     0.908260000000     0          
T        Si     0.604400000000     0.167800000000     0.191660000000     0          
T        Si     0.602150000000     0.045550000000     0.091740000000     0          
T        Si     0.500000000000     0.085900000000     0.100000000000     0          
T        Si     0.500000000000     0.140250000000     0.000000000000     0          
T        Si     0.895600000000     0.332200000000     0.191660000000     0          
T        Si     0.897850000000     0.454450000000     0.091740000000     0          
T        Si     0.500000000000     0.414100000000     0.100000000000     0          
T        Si     0.500000000000     0.359750000000     0.000000000000     0          
T        Si     0.604400000000     0.332200000000     0.008340000000     0          
T        Si     0.602150000000     0.454450000000     0.108260000000     0          
T        Si     0.895600000000     0.167800000000     0.008340000000     0          
T        Si     0.897850000000     0.045550000000     0.108260000000     0          
T        Si     0.854400000000     0.417800000000     0.191660000000     0          
T        Si     0.852150000000     0.295550000000     0.091740000000     0          
T        Si     0.750000000000     0.335900000000     0.100000000000     0          
T        Si     0.750000000000     0.390250000000     0.000000000000     0          
T        Si     0.645600000000     0.082200000000     0.191660000000     0          
T        Si     0.647850000000     0.204450000000     0.091740000000     0          
T        Si     0.750000000000     0.164100000000     0.100000000000     0          
T        Si     0.750000000000     0.109750000000     0.000000000000     0          
T        Si     0.854400000000     0.082200000000     0.008340000000     0          
T        Si     0.852150000000     0.204450000000     0.108260000000     0          
T        Si     0.645600000000     0.417800000000     0.008340000000     0          
T        Si     0.647850000000     0.295550000000     0.108260000000     0          
T        Si     0.604400000000     0.167800000000     0.391660000000     0          
T        Si     0.602150000000     0.045550000000     0.291740000000     0          
T        Si     0.500000000000     0.085900000000     0.300000000000     0          
T        Si     0.500000000000     0.140250000000     0.200000000000     0          
T        Si     0.895600000000     0.332200000000     0.391660000000     0          
T        Si     0.897850000000     0.454450000000     0.291740000000     0          
T        Si     0.500000000000     0.414100000000     0.300000000000     0          
T        Si     0.500000000000     0.359750000000     0.200000000000     0          
T        Si     0.604400000000     0.332200000000     0.208340000000     0          
T        Si     0.602150000000     0.454450000000     0.308260000000     0          
T        Si     0.895600000000     0.167800000000     0.208340000000     0          
T        Si     0.897850000000     0.045550000000     0.308260000000     0          
T        Si     0.854400000000     0.417800000000     0.391660000000     0          
T        Si     0.852150000000     0.295550000000     0.291740000000     0          
T        Si     0.750000000000     0.335900000000     0.300000000000     0          
T        Si     0.750000000000     0.390250000000     0.200000000000     0          
T        Si     0.645600000000     0.082200000000     0.391660000000     0          
T        Si     0.647850000000     0.204450000000     0.291740000000     0          
T        Si     0.750000000000     0.164100000000     0.300000000000     0          
T        Si     0.750000000000     0.109750000000     0.200000000000     0          
T        Si     0.854400000000     0.082200000000     0.208340000000     0          
T        Si     0.852150000000     0.204450000000     0.308260000000     0          
T        Si     0.645600000000     0.417800000000     0.208340000000     0          
T        Si     0.647850000000     0.295550000000     0.308260000000     0          
T        Si     0.604400000000     0.167800000000     0.591660000000     0          
T        Si     0.602150000000     0.045550000000     0.491740000000     0          
T        Si     0.500000000000     0.085900000000     0.500000000000     0          
T        Si     0.500000000000     0.140250000000     0.400000000000     0          
T        Si     0.895600000000     0.332200000000     0.591660000000     0          
T        Si     0.897850000000     0.454450000000     0.491740000000     0          
T        Si     0.500000000000     0.414100000000     0.500000000000     0          
T        Si     0.500000000000     0.359750000000     0.400000000000     0          
T        Si     0.604400000000     0.332200000000     0.408340000000     0          
T        Si     0.602150000000     0.454450000000     0.508260000000     0          
T        Si     0.895600000000     0.167800000000     0.408340000000     0          
T        Si     0.897850000000     0.045550000000     0.508260000000     0          
T        Si     0.854400000000     0.417800000000     0.591660000000     0          
T        Si     0.852150000000     0.295550000000     0.491740000000     0          
T        Si     0.750000000000     0.335900000000     0.500000000000     0          
T        Si     0.750000000000     0.390250000000     0.400000000000     0          
T        Si     0.645600000000     0.082200000000     0.591660000000     0          
T        Si     0.647850000000     0.204450000000     0.491740000000     0          
T        Si     0.750000000000     0.164100000000     0.500000000000     0          
T        Si     0.750000000000     0.109750000000     0.400000000000     0          
T        Si     0.854400000000     0.082200000000     0.408340000000     0          
T        Si     0.852150000000     0.204450000000     0.508260000000     0          
T        Si     0.645600000000     0.417800000000     0.408340000000     0          
T        Si     0.647850000000     0.295550000000     0.508260000000     0          
T        Si     0.604400000000     0.167800000000     0.791660000000     0          
T        Si     0.602150000000     0.045550000000     0.691740000000     0          
T        Si     0.500000000000     0.085900000000     0.700000000000     0          
T        Si     0.500000000000     0.140250000000     0.600000000000     0          
T        Si     0.895600000000     0.332200000000     0.791660000000     0          
T        Si     0.897850000000     0.454450000000     0.691740000000     0          
T        Si     0.500000000000     0.414100000000     0.700000000000     0          
T        Si     0.500000000000     0.359750000000     0.600000000000     0          
T        Si     0.604400000000     0.332200000000     0.608340000000     0          
T        Si     0.602150000000     0.454450000000     0.708260000000     0          
T        Si     0.895600000000     0.167800000000     0.608340000000     0          
T        Si     0.897850000000     0.045550000000     0.708260000000     0          
T        Si     0.854400000000     0.417800000000     0.791660000000     0          
T        Si     0.852150000000     0.295550000000     0.691740000000     0          
T        Si     0.750000000000     0.335900000000     0.700000000000     0          
T        Si     0.750000000000     0.390250000000     0.600000000000     0          
T        Si     0.645600000000     0.082200000000     0.791660000000     0          
T        Si     0.647850000000     0.204450000000     0.691740000000     0          
T        Si     0.750000000000     0.164100000000     0.700000000000     0          
T        Si     0.750000000000     0.109750000000     0.600000000000     0          
T        Si     0.854400000000     0.082200000000     0.608340000000     0          
T        Si     0.852150000000     0.204450000000     0.708260000000     0          
T        Si     0.645600000000     0.417800000000     0.608340000000     0          
T        Si     0.647850000000     0.295550000000     0.708260000000     0          
T        Si     0.604400000000     0.167800000000     0.991660000000     0          
T        Si     0.602150000000     0.045550000000     0.891740000000     0          
T        Si     0.500000000000     0.085900000000     0.900000000000     0          
T        Si     0.500000000000     0.140250000000     0.800000000000     0          
T        Si     0.895600000000     0.332200000000     0.991660000000     0          
T        Si     0.897850000000     0.454450000000     0.891740000000     0          
T        Si     0.500000000000     0.414100000000     0.900000000000     0          
T        Si     0.500000000000     0.359750000000     0.800000000000     0          
T        Si     0.604400000000     0.332200000000     0.808340000000     0          
T        Si     0.602150000000     0.454450000000     0.908260000000     0          
T        Si     0.895600000000     0.167800000000     0.808340000000     0          
T        Si     0.897850000000     0.045550000000     0.908260000000     0          
T        Si     0.854400000000     0.417800000000     0.991660000000     0          
T        Si     0.852150000000     0.295550000000     0.891740000000     0          
T        Si     0.750000000000     0.335900000000     0.900000000000     0          
T        Si     0.750000000000     0.390250000000     0.800000000000     0          
T        Si     0.645600000000     0.082200000000     0.991660000000     0          
T        Si     0.647850000000     0.204450000000     0.891740000000     0          
T        Si     0.750000000000     0.164100000000     0.900000000000     0          
T        Si     0.750000000000     0.109750000000     0.800000000000     0          
T        Si     0.854400000000     0.082200000000     0.808340000000     0          
T        Si     0.852150000000     0.204450000000     0.908260000000     0          
T        Si     0.645600000000     0.417800000000     0.808340000000     0          
T        Si     0.647850000000     0.295550000000     0.908260000000     0          
T        Si     0.604400000000     0.667800000000     0.191660000000     0          
T        Si     0.602150000000     0.545550000000     0.091740000000     0          
T        Si     0.500000000000     0.585900000000     0.100000000000     0          
T        Si     0.500000000000     0.640250000000     0.000000000000     0          
T        Si     0.895600000000     0.832200000000     0.191660000000     0          
T        Si     0.897850000000     0.954450000000     0.091740000000     0          
T        Si     0.500000000000     0.914100000000     0.100000000000     0          
T        Si     0.500000000000     0.859750000000     0.000000000000     0          
T        Si     0.604400000000     0.832200000000     0.008340000000     0          
T        Si     0.602150000000     0.954450000000     0.108260000000     0          
T        Si     0.895600000000     0.667800000000     0.008340000000     0          
T        Si     0.897850000000     0.545550000000     0.108260000000     0          
T        Si     0.854400000000     0.917800000000     0.191660000000     0          
T        Si     0.852150000000     0.795550000000     0.091740000000     0          
T        Si     0.750000000000     0.835900000000     0.100000000000     0          
T        Si     0.750000000000     0.890250000000     0.000000000000     0          
T        Si     0.645600000000     0.582200000000     0.191660000000     0          
T        Si     0.647850000000     0.704450000000     0.091740000000     0          
T        Si     0.750000000000     0.664100000000     0.100000000000     0          
T        Si     0.750000000000     0.609750000000     0.000000000000     0          
T        Si     0.854400000000     0.582200000000     0.008340000000     0          
T        Si     0.852150000000     0.704450000000     0.108260000000     0          
T        Si     0.645600000000     0.917800000000     0.008340000000     0          
T        Si     0.647850000000     0.795550000000     0.108260000000     0          
T        Si     0.604400000000     0.667800000000     0.391660000000     0          
T        Si     0.602150000000     0.545550000000     0.291740000000     0          
T        Si     0.500000000000     0.585900000000     0.300000000000     0          
T        Si     0.500000000000     0.640250000000     0.200000000000     0          
T        Si     0.895600000000     0.832200000000     0.391660000000     0          
T        Si     0.897850000000     0.954450000000     0.291740000000     0          
T        Si     0.500000000000     0.914100000000     0.300000000000     0          
T        Si     0.500000000000     0.859750000000     0.200000000000     0          
T        Si     0.604400000000     0.832200000000     0.208340000000     0          
T        Si     0.602150000000     0.954450000000     0.308260000000     0          
T        Si     0.895600000000     0.667800000000     0.208340000000     0          
T        Si     0.897850000000     0.545550000000     0.308260000000     0          
T        Si     0.854400000000     0.917800000000     0.391660000000     0          
T        Si     0.852150000000     0.795550000000     0.291740000000     0          
T        Si     0.750000000000     0.835900000000     0.300000000000     0          
T        Si     0.750000000000     0.890250000000     0.200000000000     0          
T        Si     0.645600000000     0.582200000000     0.391660000000     0          
T        Si     0.647850000000     0.704450000000     0.291740000000     0          
T        Si     0.750000000000     0.664100000000     0.300000000000     0          
T        Si     0.750000000000     0.609750000000     0.200000000000     0          
T        Si     0.854400000000     0.582200000000     0.208340000000     0          
T        Si     0.852150000000     0.704450000000     0.308260000000     0          
T        Si     0.645600000000     0.917800000000     0.208340000000     0          
T        Si     0.647850000000     0.795550000000     0.308260000000     0          
T        Si     0.604400000000     0.667800000000     0.591660000000     0          
T        Si     0.602150000000     0.545550000000     0.491740000000     0          
T        Si     0.500000000000     0.585900000000     0.500000000000     0          
T        Si     0.500000000000     0.640250000000     0.400000000000     0          
T        Si     0.895600000000     0.832200000000     0.591660000000     0          
T        Si     0.897850000000     0.954450000000     0.491740000000     0          
T        Si     0.500000000000     0.914100000000     0.500000000000     0          
T        Si     0.500000000000     0.859750000000     0.400000000000     0          
T        Si     0.604400000000     0.832200000000     0.408340000000     0          
T        Si     0.602150000000     0.954450000000     0.508260000000     0          
T        Si     0.895600000000     0.667800000000     0.408340000000     0          
T        Si     0.897850000000     0.545550000000     0.508260000000     0          
T        Si     0.854400000000     0.917800000000     0.591660000000     0          
T        Si     0.852150000000     0.795550000000     0.491740000000     0          
T        Si     0.750000000000     0.835900000000     0.500000000000     0          
T        Si     0.750000000000     0.890250000000     0.400000000000     0          
T        Si     0.645600000000     0.582200000000     0.591660000000     0          
T        Si     0.647850000000     0.704450000000     0.491740000000     0          
T        Si     0.750000000000     0.664100000000     0.500000000000     0          
T        Si     0.750000000000     0.609750000000     0.400000000000     0          
T        Si     0.854400000000     0.582200000000     0.408340000000     0          
T        Si     0.852150000000     0.704450000000     0.508260000000     0          
T        Si     0.645600000000     0.917800000000     0.408340000000     0          
T        Si     0.647850000000     0.795550000000     0.508260000000     0          
T        Si     0.604400000000     0.667800000000     0.791660000000     0          
T        Si     0.602150000000     0.545550000000     0.691740000000     0          
T        Si     0.500000000000     0.585900000000     0.700000000000     0          
T        Si     0.500000000000     0.640250000000     0.600000000000     0          
T        Si     0.895600000000     0.832200000000     0.791660000000     0          
T        Si     0.897850000000     0.954450000000     0.691740000000     0          
T        Si     0.500000000000     0.914100000000     0.700000000000     0          
T        Si     0.500000000000     0.859750000000     0.600000000000     0          
T        Si     0.604400000000     0.832200000000     0.608340000000     0          
T        Si     0.602150000000     0.954450000000     0.708260000000     0          
T        Si     0.895600000000     0.667800000000     0.608340000000     0          
T        Si     0.897850000000     0.545550000000     0.708260000000     0          
T        Si     0.854400000000     0.917800000000     0.791660000000     0          
T        Si     0.852150000000     0.795550000000     0.691740000000     0          
T        Si     0.750000000000     0.835900000000     0.700000000000     0          
T        Si     0.750000000000     0.890250000000     0.600000000000     0          
T        Si     0.645600000000     0.582200000000     0.791660000000     0          
T        Si     0.647850000000     0.704450000000     0.691740000000     0          
T        Si     0.750000000000     0.664100000000     0.700000000000     0          
T        Si     0.750000000000     0.609750000000     0.600000000000     0          
T        Si     0.854400000000     0.582200000000     0.608340000000     0          
T        Si     0.852150000000     0.704450000000     0.708260000000     0          
T        Si     0.645600000000     0.917800000000     0.608340000000     0          
T        Si     0.647850000000     0.795550000000     0.708260000000     0          
T        Si     0.604400000000     0.667800000000     0.991660000000     0          
T        Si     0.602150000000     0.545550000000     0.891740000000     0          
T        Si     0.500000000000     0.585900000000     0.900000000000     0          
T        Si     0.500000000000     0.640250000000     0.800000000000     0          
T        Si     0.895600000000     0.832200000000     0.991660000000     0          
T        Si     0.897850000000     0.954450000000     0.891740000000     0          
T        Si     0.500000000000     0.914100000000     0.900000000000     0          
T        Si     0.500000000000     0.859750000000     0.800000000000     0          
T        Si     0.604400000000     0.832200000000     0.808340000000     0          
T        Si     0.602150000000     0.954450000000     0.908260000000     0          
T        Si     0.895600000000     0.667800000000     0.808340000000     0          
T        Si     0.897850000000     0.545550000000     0.908260000000     0          
T        Si     0.854400000000     0.917800000000     0.991660000000     0          
T        Si     0.852150000000     0.795550000000     0.891740000000     0          
T        Si     0.750000000000     0.835900000000     0.900000000000     0          
T        Si     0.750000000000     0.890250000000     0.800000000000     0          
T        Si     0.645600000000     0.582200000000     0.991660000000     0          
T        Si     0.647850000000     0.704450000000     0.891740000000     0          
T        Si     0.750000000000     0.664100000000     0.900000000000     0          
T        Si     0.750000000000     0.609750000000     0.800000000000     0          
T        Si     0.854400000000     0.582200000000     0.808340000000     0          
T        Si     0.852150000000     0.704450000000     0.908260000000     0          
T        Si     0.645600000000     0.917800000000     0.808340000000     0          
T        Si     0.647850000000     0.795550000000     0.908260000000     0          
O        O      0.115150000000     0.183450000000     0.134440000000     0          
O        O      0.120700000000     0.055350000000     0.034440000000     0          
O        O      0.047200000000     0.166950000000     0.001620000000     0          
O        O      0.125000000000     0.125000000000     0.197620000000     0          
O        O      0.002000000000     0.113100000000     0.150000000000     0          
O        O      0.105300000000     0.000000000000     0.100000000000     0          
O        O      0.047200000000     0.059300000000     0.097920000000     0          
O        O      0.384850000000     0.316550000000     0.134440000000     0          
O        O      0.379300000000     0.444650000000     0.034440000000     0          
O        O      0.452800000000     0.333050000000     0.001620000000     0          
O        O      0.375000000000     0.375000000000     0.197620000000     0          
O        O      0.498000000000     0.386900000000     0.150000000000     0          
O        O      0.394700000000     0.000000000000     0.100000000000     0          
O        O      0.452800000000     0.440700000000     0.097920000000     0          
O        O      0.115150000000     0.316550000000     0.065560000000     0          
O        O      0.120700000000     0.444650000000     0.165560000000     0          
O        O      0.047200000000     0.333050000000     0.198380000000     0          
O        O      0.125000000000     0.375000000000     0.002380000000     0          
O        O      0.002000000000     0.386900000000     0.050000000000     0          
O        O      0.047200000000     0.440700000000     0.102080000000     0          
O        O      0.384850000000     0.183450000000     0.065560000000     0          
O        O      0.379300000000     0.055350000000     0.165560000000     0          
O        O      0.452800000000     0.166950000000     0.198380000000     0          
O        O      0.375000000000     0.125000000000     0.002380000000     0          
O        O      0.498000000000     0.113100000000     0.050000000000     0          
O        O      0.452800000000     0.059300000000     0.102080000000     0          
O        O      0.365150000000     0.433450000000     0.134440000000     0          
O        O      0.370700000000     0.305350000000     0.034440000000     0          
O        O      0.297200000000     0.416950000000     0.001620000000     0          
O        O      0.252000000000     0.363100000000     0.150000000000     0          
O        O      0.355300000000     0.250000000000     0.100000000000     0          
O        O      0.297200000000     0.309300000000     0.097920000000     0          
O        O      0.134850000000     0.066550000000     0.134440000000     0          
O        O      0.129300000000     0.194650000000     0.034440000000     0          
O        O      0.202800000000     0.083050000000     0.001620000000     0          
O        O      0.248000000000     0.136900000000     0.150000000000     0          
O        O      0.144700000000     0.250000000000     0.100000000000     0          
O        O      0.202800000000     0.190700000000     0.097920000000     0          
O        O      0.365150000000     0.066550000000     0.065560000000     0          
O        O      0.370700000000     0.194650000000     0.165560000000     0          
O        O      0.297200000000     0.083050000000     0.198380000000     0          
O        O      0.252000000000     0.136900000000     0.050000000000     0          
O        O      0.297200000000     0.190700000000     0.102080000000     0          
O        O      0.134850000000     0.433450000000     0.065560000000     0          
O        O      0.129300000000     0.305350000000     0.165560000000     0          
O        O      0.202800000000     0.416950000000     0.198380000000     0          
O        O      0.248000000000     0.363100000000     0.050000000000     0          
O        O      0.202800000000     0.309300000000     0.102080000000     0          
O        O      0.115150000000     0.183450000000     0.334440000000     0          
O        O      0.120700000000     0.055350000000     0.234440000000     0          
O        O      0.047200000000     0.166950000000     0.201620000000     0          
O        O      0.125000000000     0.125000000000     0.397620000000     0          
O        O      0.002000000000     0.113100000000     0.350000000000     0          
O        O      0.105300000000     0.000000000000     0.300000000000     0          
O        O      0.047200000000     0.059300000000     0.297920000000     0          
O        O      0.384850000000     0.316550000000     0.334440000000     0          
O        O      0.379300000000     0.444650000000     0.234440000000     0          
O        O      0.452800000000     0.333050000000     0.201620000000     0          
O        O      0.375000000000     0.375000000000     0.397620000000     0          
O        O      0.498000000000     0.386900000000     0.350000000000     0          
O        O      0.394700000000     0.000000000000     0.300000000000     0          
O        O      0.452800000000     0.440700000000     0.297920000000     0          
O        O      0.115150000000     0.316550000000     0.265560000000     0          
O        O      0.120700000000     0.444650000000     0.365560000000     0          
O        O      0.047200000000     0.333050000000     0.398380000000     0          
O        O      0.125000000000     0.375000000000     0.202380000000     0          
O        O      0.002000000000     0.386900000000     0.250000000000     0          
O        O      0.047200000000     0.440700000000     0.302080000000     0          
O        O      0.384850000000     0.183450000000     0.265560000000     0          
O        O      0.379300000000     0.055350000000     0.365560000000     0          
O        O      0.452800000000     0.166950000000     0.398380000000     0          
O        O      0.375000000000     0.125000000000     0.202380000000     0          
O        O      0.498000000000     0.113100000000     0.250000000000     0          
O        O      0.452800000000     0.059300000000     0.302080000000     0          
O        O      0.365150000000     0.433450000000     0.334440000000     0          
O        O      0.370700000000     0.305350000000     0.234440000000     0          
O        O      0.297200000000     0.416950000000     0.201620000000     0          
O        O      0.252000000000     0.363100000000     0.350000000000     0          
O        O      0.355300000000     0.250000000000     0.300000000000     0          
O        O      0.297200000000     0.309300000000     0.297920000000     0          
O        O      0.134850000000     0.066550000000     0.334440000000     0          
O        O      0.129300000000     0.194650000000     0.234440000000     0          
O        O      0.202800000000     0.083050000000     0.201620000000     0          
O        O      0.248000000000     0.136900000000     0.350000000000     0          
O        O      0.144700000000     0.250000000000     0.300000000000     0          
O        O      0.202800000000     0.190700000000     0.297920000000     0          
O        O      0.365150000000     0.066550000000     0.265560000000     0          
O        O      0.370700000000     0.194650000000     0.365560000000     0          
O        O      0.297200000000     0.083050000000     0.398380000000     0          
O        O      0.252000000000     0.136900000000     0.250000000000     0          
O        O      0.297200000000     0.190700000000     0.302080000000     0          
O        O      0.134850000000     0.433450000000     0.265560000000     0          
O        O      0.129300000000     0.305350000000     0.365560000000     0          
O        O      0.202800000000     0.416950000000     0.398380000000     0          
O        O      0.248000000000     0.363100000000     0.250000000000     0          
O        O      0.202800000000     0.309300000000     0.302080000000     0          
O        O      0.115150000000     0.183450000000     0.534440000000     0          
O        O      0.120700000000     0.055350000000     0.434440000000     0          
O        O      0.047200000000     0.166950000000     0.401620000000     0          
O        O      0.125000000000     0.125000000000     0.597620000000     0          
O        O      0.002000000000     0.113100000000     0.550000000000     0          
O        O      0.105300000000     0.000000000000     0.500000000000     0          
O        O      0.047200000000     0.059300000000     0.497920000000     0          
O        O      0.384850000000     0.316550000000     0.534440000000     0          
O        O      0.379300000000     0.444650000000     0.434440000000     0          
O        O      0.452800000000     0.333050000000     0.401620000000     0          
O        O      0.375000000000     0.375000000000     0.597620000000     0          
O        O      0.498000000000     0.386900000000     0.550000000000     0          
O        O      0.394700000000     0.000000000000     0.500000000000     0          
O        O      0.452800000000     0.440700000000     0.497920000000     0          
O        O      0.115150000000     0.316550000000     0.465560000000     0          
O        O      0.120700000000     0.444650000000     0.565560000000     0          
O        O      0.047200000000     0.333050000000     0.598380000000     0          
O        O      0.125000000000     0.375000000000     0.402380000000     0          
O        O      0.002000000000     0.386900000000     0.450000000000     0          
O        O      0.047200000000     0.440700000000     0.502080000000     0          
O        O      0.384850000000     0.183450000000     0.465560000000     0          
O        O      0.379300000000     0.055350000000     0.565560000000     0          
O        O      0.452800000000     0.166950000000     0.598380000000     0          
O        O      0.375000000000     0.125000000000     0.402380000000     0          
O        O      0.498000000000     0.113100000000     0.450000000000     0          
O        O      0.452800000000     0.059300000000     0.502080000000     0          
O        O      0.365150000000     0.433450000000     0.534440000000     0          
O        O      0.370700000000     0.305350000000     0.434440000000     0          
O        O      0.297200000000     0.416950000000     0.401620000000     0          
O        O      0.252000000000     0.363100000000     0.550000000000     0          
O        O      0.355300000000     0.250000000000     0.500000000000     0          
O        O      0.297200000000     0.309300000000     0.497920000000     0          
O        O      0.134850000000     0.066550000000     0.534440000000     0          
O        O      0.129300000000     0.194650000000     0.434440000000     0          
O        O      0.202800000000     0.083050000000     0.401620000000     0          
O        O      0.248000000000     0.136900000000     0.550000000000     0          
O        O      0.144700000000     0.250000000000     0.500000000000     0          
O        O      0.202800000000     0.190700000000     0.497920000000     0          
O        O      0.365150000000     0.066550000000     0.465560000000     0          
O        O      0.370700000000     0.194650000000     0.565560000000     0          
O        O      0.297200000000     0.083050000000     0.598380000000     0          
O        O      0.252000000000     0.136900000000     0.450000000000     0          
O        O      0.297200000000     0.190700000000     0.502080000000     0          
O        O      0.134850000000     0.433450000000     0.465560000000     0          
O        O      0.129300000000     0.305350000000     0.565560000000     0          
O        O      0.202800000000     0.416950000000     0.598380000000     0          
O        O      0.248000000000     0.363100000000     0.450000000000     0          
O        O      0.202800000000     0.309300000000     0.502080000000     0          
O        O      0.115150000000     0.183450000000     0.734440000000     0          
O        O      0.120700000000     0.055350000000     0.634440000000     0          
O        O      0.047200000000     0.166950000000     0.601620000000     0          
O        O      0.125000000000     0.125000000000     0.797620000000     0          
O        O      0.002000000000     0.113100000000     0.750000000000     0          
O        O      0.105300000000     0.000000000000     0.700000000000     0          
O        O      0.047200000000     0.059300000000     0.697920000000     0          
O        O      0.384850000000     0.316550000000     0.734440000000     0          
O        O      0.379300000000     0.444650000000     0.634440000000     0          
O        O      0.452800000000     0.333050000000     0.601620000000     0          
O        O      0.375000000000     0.375000000000     0.797620000000     0          
O        O      0.498000000000     0.386900000000     0.750000000000     0          
O        O      0.394700000000     0.000000000000     0.700000000000     0          
O        O      0.452800000000     0.440700000000     0.697920000000     0          
O        O      0.115150000000     0.316550000000     0.665560000000     0          
O        O      0.120700000000     0.444650000000     0.765560000000     0          
O        O      0.047200000000     0.333050000000     0.798380000000     0          
O        O      0.125000000000     0.375000000000     0.602380000000     0          
O        O      0.002000000000     0.386900000000     0.650000000000     0          
O        O      0.047200000000     0.440700000000     0.702080000000     0          
O        O      0.384850000000     0.183450000000     0.665560000000     0          
O        O      0.379300000000     0.055350000000     0.765560000000     0          
O        O      0.452800000000     0.166950000000     0.798380000000     0          
O        O      0.375000000000     0.125000000000     0.602380000000     0          
O        O      0.498000000000     0.113100000000     0.650000000000     0          
O        O      0.452800000000     0.059300000000     0.702080000000     0          
O        O      0.365150000000     0.433450000000     0.734440000000     0          
O        O      0.370700000000     0.305350000000     0.634440000000     0          
O        O      0.297200000000     0.416950000000     0.601620000000     0          
O        O      0.252000000000     0.363100000000     0.750000000000     0          
O        O      0.355300000000     0.250000000000     0.700000000000     0          
O        O      0.297200000000     0.309300000000     0.697920000000     0          
O        O      0.134850000000     0.066550000000     0.734440000000     0          
O        O      0.129300000000     0.194650000000     0.634440000000     0          
O        O      0.202800000000     0.083050000000     0.601620000000     0          
O        O      0.248000000000     0.136900000000     0.750000000000     0          
O        O      0.144700000000     0.250000000000     0.700000000000     0          
O        O      0.202800000000     0.190700000000     0.697920000000     0          
O        O      0.365150000000     0.066550000000     0.665560000000     0          
O        O      0.370700000000     0.194650000000     0.765560000000     0          
O        O      0.297200000000     0.083050000000     0.798380000000     0          
O        O      0.252000000000     0.136900000000     0.650000000000     0          
O        O      0.297200000000     0.190700000000     0.702080000000     0          
O        O      0.134850000000     0.433450000000     0.665560000000     0          
O        O      0.129300000000     0.305350000000     0.765560000000     0          
O        O      0.202800000000     0.416950000000     0.798380000000     0          
O        O      0.248000000000     0.363100000000     0.650000000000     0          
O        O      0.202800000000     0.309300000000     0.702080000000     0          
O        O      0.115150000000     0.183450000000     0.934440000000     0          
O        O      0.120700000000     0.055350000000     0.834440000000     0          
O        O      0.047200000000     0.166950000000     0.801620000000     0          
O        O      0.125000000000     0.125000000000     0.997620000000     0          
O        O      0.002000000000     0.113100000000     0.950000000000     0          
O        O      0.105300000000     0.000000000000     0.900000000000     0          
O        O      0.047200000000     0.059300000000     0.897920000000     0          
O        O      0.384850000000     0.316550000000     0.934440000000     0          
O        O      0.379300000000     0.444650000000     0.834440000000     0          
O        O      0.452800000000     0.333050000000     0.801620000000     0          
O        O      0.375000000000     0.375000000000     0.997620000000     0          
O        O      0.498000000000     0.386900000000     0.950000000000     0          
O        O      0.394700000000     0.000000000000     0.900000000000     0          
O        O      0.452800000000     0.440700000000     0.897920000000     0          
O        O      0.115150000000     0.316550000000     0.865560000000     0          
O        O      0.120700000000     0.444650000000     0.965560000000     0          
O        O      0.047200000000     0.333050000000     0.998380000000     0          
O        O      0.125000000000     0.375000000000     0.802380000000     0          
O        O      0.002000000000     0.386900000000     0.850000000000     0          
O        O      0.047200000000     0.440700000000     0.902080000000     0          
O        O      0.384850000000     0.183450000000     0.865560000000     0          
O        O      0.379300000000     0.055350000000     0.965560000000     0          
O        O      0.452800000000     0.166950000000     0.998380000000     0          
O        O      0.375000000000     0.125000000000     0.802380000000     0          
O        O      0.498000000000     0.113100000000     0.850000000000     0          
O        O      0.452800000000     0.059300000000     0.902080000000     0          
O        O      0.365150000000     0.433450000000     0.934440000000     0          
O        O      0.370700000000     0.305350000000     0.834440000000     0          
O        O      0.297200000000     0.416950000000     0.801620000000     0          
O        O      0.252000000000     0.363100000000     0.950000000000     0          
O        O      0.355300000000     0.250000000000     0.900000000000     0          
O        O      0.297200000000     0.309300000000     0.897920000000     0          
O        O      0.134850000000     0.066550000000     0.934440000000     0          
O        O      0.129300000000     0.194650000000     0.834440000000     0          
O        O      0.202800000000     0.083050000000     0.801620000000     0          
O        O      0.248000000000     0.136900000000     0.950000000000     0          
O        O      0.144700000000     0.250000000000     0.900000000000     0          
O        O      0.202800000000     0.190700000000     0.897920000000     0          
O        O      0.365150000000     0.066550000000     0.865560000000     0          
O        O      0.370700000000     0.194650000000     0.965560000000     0          
O        O      0.297200000000     0.083050000000     0.998380000000     0          
O        O      0.252000000000     0.136900000000     0.850000000000     0          
O        O      0.297200000000     0.190700000000     0.902080000000     0          
O        O      0.134850000000     0.433450000000     0.865560000000     0          
O        O      0.129300000000     0.305350000000     0.965560000000     0          
O        O      0.202800000000     0.416950000000     0.998380000000     0          
O        O      0.248000000000     0.363100000000     0.850000000000     0          
O        O      0.202800000000     0.309300000000     0.902080000000     0          
O        O      0.115150000000     0.683450000000     0.134440000000     0          
O        O      0.120700000000     0.555350000000     0.034440000000     0          
O        O      0.047200000000     0.666950000000     0.001620000000     0          
O        O      0.125000000000     0.625000000000     0.197620000000     0          
O        O      0.002000000000     0.613100000000     0.150000000000     0          
O        O      0.105300000000     0.500000000000     0.100000000000     0          
O        O      0.047200000000     0.559300000000     0.097920000000     0          
O        O      0.384850000000     0.816550000000     0.134440000000     0          
O        O      0.379300000000     0.944650000000     0.034440000000     0          
O        O      0.452800000000     0.833050000000     0.001620000000     0          
O        O      0.375000000000     0.875000000000     0.197620000000     0          
O        O      0.498000000000     0.886900000000     0.150000000000     0          
O        O      0.394700000000     0.500000000000     0.100000000000     0          
O        O      0.452800000000     0.940700000000     0.097920000000     0          
O        O      0.115150000000     0.816550000000     0.065560000000     0          
O        O      0.120700000000     0.944650000000     0.165560000000     0          
O        O      0.047200000000     0.833050000000     0.198380000000     0          
O        O      0.125000000000     0.875000000000     0.002380000000     0          
O        O      0.002000000000     0.886900000000     0.050000000000     0          
O        O      0.047200000000     0.940700000000     0.102080000000     0          
O        O      0.384850000000     0.683450000000     0.065560000000     0          
O        O      0.379300000000     0.555350000000     0.165560000000     0          
O        O      0.452800000000     0.666950000000     0.198380000000     0          
O        O      0.375000000000     0.625000000000     0.002380000000     0          
O        O      0.498000000000     0.613100000000     0.050000000000     0          
O        O      0.452800000000     0.559300000000     0.102080000000     0          
O        O      0.365150000000     0.933450000000     0.134440000000     0          
O        O      0.370700000000     0.805350000000     0.034440000000     0          
O        O      0.297200000000     0.916950000000     0.001620000000     0          
O        O      0.252000000000     0.863100000000     0.150000000000     0          
O        O      0.355300000000     0.750000000000     0.100000000000     0          
O        O      0.297200000000     0.809300000000     0.097920000000     0          
O        O      0.134850000000     0.566550000000     0.134440000000     0          
O        O      0.129300000000     0.694650000000     0.034440000000     0          
O        O      0.202800000000     0.583050000000     0.001620000000     0          
O        O      0.248000000000     0.636900000000     0.150000000000     0          
O        O      0.144700000000     0.750000000000     0.100000000000     0          
O        O      0.202800000000     0.690700000000     0.097920000000     0          
O        O      0.365150000000     0.566550000000     0.065560000000     0          
O        O      0.370700000000     0.694650000000     0.165560000000     0          
O        O      0.297200000000     0.583050000000     0.198380000000     0          
O        O      0.252000000000     0.636900000000     0.050000000000     0          
O        O      0.297200000000     0.690700000000     0.102080000000     0          
O        O      0.134850000000     0.933450000000     0.065560000000     0          
O        O      0.129300000000     0.805350000000     0.165560000000     0          
O        O      0.202800000000     0.916950000000     0.198380000000     0          
O        O      0.248000000000     0.863100000000     0.050000000000     0          
O        O      0.202800000000     0.809300000000     0.102080000000     0          
O        O      0.115150000000     0.683450000000     0.334440000000     0          
O        O      0.120700000000     0.555350000000     0.234440000000     0          
O        O      0.047200000000     0.666950000000     0.201620000000     0          
O        O      0.125000000000     0.625000000000     0.397620000000     0          
O        O      0.002000000000     0.613100000000     0.350000000000     0          
O        O      0.105300000000     0.500000000000     0.300000000000     0          
O        O      0.047200000000     0.559300000000     0.297920000000     0          
O        O      0.384850000000     0.816550000000     0.334440000000     0          
O        O      0.379300000000     0.944650000000     0.234440000000     0          
O        O      0.452800000000     0.833050000000     0.201620000000     0          
O        O      0.375000000000     0.875000000000     0.397620000000     0          
O        O      0.498000000000     0.886900000000     0.350000000000     0          
O        O      0.394700000000     0.500000000000     0.300000000000     0          
O        O      0.452800000000     0.940700000000     0.297920000000     0          
O        O      0.115150000000     0.816550000000     0.265560000000     0          
O        O      0.120700000000     0.944650000000     0.365560000000     0          
O        O      0.047200000000     0.833050000000     0.398380000000     0          
O        O      0.125000000000     0.875000000000     0.202380000000     0          
O        O      0.002000000000     0.886900000000     0.250000000000     0          
O        O      0.047200000000     0.940700000000     0.302080000000     0          
O        O      0.384850000000     0.683450000000     0.265560000000     0          
O        O      0.379300000000     0.555350000000     0.365560000000     0          
O        O      0.452800000000     0.666950000000     0.398380000000     0          
O        O      0.375000000000     0.625000000000     0.202380000000     0          
O        O      0.498000000000     0.613100000000     0.250000000000     0          
O        O      0.452800000000     0.559300000000     0.302080000000     0          
O        O      0.365150000000     0.933450000000     0.334440000000     0          
O        O      0.370700000000     0.805350000000     0.234440000000     0          
O        O      0.297200000000     0.916950000000     0.201620000000     0          
O        O      0.252000000000     0.863100000000     0.350000000000     0          
O        O      0.355300000000     0.750000000000     0.300000000000     0          
O        O      0.297200000000     0.809300000000     0.297920000000     0          
O        O      0.134850000000     0.566550000000     0.334440000000     0          
O        O      0.129300000000     0.694650000000     0.234440000000     0          
O        O      0.202800000000     0.583050000000     0.201620000000     0          
O        O      0.248000000000     0.636900000000     0.350000000000     0          
O        O      0.144700000000     0.750000000000     0.300000000000     0          
O        O      0.202800000000     0.690700000000     0.297920000000     0          
O        O      0.365150000000     0.566550000000     0.265560000000     0          
O        O      0.370700000000     0.694650000000     0.365560000000     0          
O        O      0.297200000000     0.583050000000     0.398380000000     0          
O        O      0.252000000000     0.636900000000     0.250000000000     0          
O        O      0.297200000000     0.690700000000     0.302080000000     0          
O        O      0.134850000000     0.933450000000     0.265560000000     0          
O        O      0.129300000000     0.805350000000     0.365560000000     0          
O        O      0.202800000000     0.916950000000     0.398380000000     0          
O        O      0.248000000000     0.863100000000     0.250000000000     0          
O        O      0.202800000000     0.809300000000     0.302080000000     0          
O        O      0.115150000000     0.683450000000     0.534440000000     0          
O        O      0.120700000000     0.555350000000     0.434440000000     0          
O        O      0.047200000000     0.666950000000     0.401620000000     0          
O        O      0.125000000000     0.625000000000     0.597620000000     0          
O        O      0.002000000000     0.613100000000     0.550000000000     0          
O        O      0.105300000000     0.500000000000     0.500000000000     0          
O        O      0.047200000000     0.559300000000     0.497920000000     0          
O        O      0.384850000000     0.816550000000     0.534440000000     0          
O        O      0.379300000000     0.944650000000     0.434440000000     0          
O        O      0.452800000000     0.833050000000     0.401620000000     0          
O        O      0.375000000000     0.875000000000     0.597620000000     0          
O        O      0.498000000000     0.886900000000     0.550000000000     0          
O        O      0.394700000000     0.500000000000     0.500000000000     0          
O        O      0.452800000000     0.940700000000     0.497920000000     0          
O        O      0.115150000000     0.816550000000     0.465560000000     0          
O        O      0.120700000000     0.944650000000     0.565560000000     0          
O        O      0.047200000000     0.833050000000     0.598380000000     0          
O        O      0.125000000000     0.875000000000     0.402380000000     0          
O        O      0.002000000000     0.886900000000     0.450000000000     0          
O        O      0.047200000000     0.940700000000     0.502080000000     0          
O        O      0.384850000000     0.683450000000     0.465560000000     0          
O        O      0.379300000000     0.555350000000     0.565560000000     0          
O        O      0.452800000000     0.666950000000     0.598380000000     0          
O        O      0.375000000000     0.625000000000     0.402380000000     0          
O        O      0.498000000000     0.613100000000     0.450000000000     0          
O        O      0.452800000000     0.559300000000     0.502080000000     0          
O        O      0.365150000000     0.933450000000     0.534440000000     0          
O        O      0.370700000000     0.805350000000     0.434440000000     0          
O        O      0.297200000000     0.916950000000     0.401620000000     0          
O        O      0.252000000000     0.863100000000     0.550000000000     0          
O        O      0.355300000000     0.750000000000     0.500000000000     0          
O        O      0.297200000000     0.809300000000     0.497920000000     0          
O        O      0.134850000000     0.566550000000     0.534440000000     0          
O        O      0.129300000000     0.694650000000     0.434440000000     0          
O        O      0.202800000000     0.583050000000     0.401620000000     0          
O        O      0.248000000000     0.636900000000     0.550000000000     0          
O        O      0.144700000000     0.750000000000     0.500000000000     0          
O        O      0.202800000000     0.690700000000     0.497920000000     0          
O        O      0.365150000000     0.566550000000     0.465560000000     0          
O        O      0.370700000000     0.694650000000     0.565560000000     0          
O        O      0.297200000000     0.583050000000     0.598380000000     0          
O        O      0.252000000000     0.636900000000     0.450000000000     0          
O        O      0.297200000000     0.690700000000     0.502080000000     0          
O        O      0.134850000000     0.933450000000     0.465560000000     0          
O        O      0.129300000000     0.805350000000     0.565560000000     0          
O        O      0.202800000000     0.916950000000     0.598380000000     0          
O        O      0.248000000000     0.863100000000     0.450000000000     0          
O        O      0.202800000000     0.809300000000     0.502080000000     0          
O        O      0.115150000000     0.683450000000     0.734440000000     0          
O        O      0.120700000000     0.555350000000     0.634440000000     0          
O        O      0.047200000000     0.666950000000     0.601620000000     0          
O        O      0.125000000000     0.625000000000     0.797620000000     0          
O        O      0.002000000000     0.613100000000     0.750000000000     0          
O        O      0.105300000000     0.500000000000     0.700000000000     0          
O        O      0.047200000000     0.559300000000     0.697920000000     0          
O        O      0.384850000000     0.816550000000     0.734440000000     0          
O        O      0.379300000000     0.944650000000     0.634440000000     0          
O        O      0.452800000000     0.833050000000     0.601620000000     0          
O        O      0.375000000000     0.875000000000     0.797620000000     0          
O        O      0.498000000000     0.886900000000     0.750000000000     0          
O        O      0.394700000000     0.500000000000     0.700000000000     0          
O        O      0.452800000000     0.940700000000     0.697920000000     0          
O        O      0.115150000000     0.816550000000     0.665560000000     0          
O        O      0.120700000000     0.944650000000     0.765560000000     0          
O        O      0.047200000000     0.833050000000     0.798380000000     0          
O        O      0.125000000000     0.875000000000     0.602380000000     0          
O        O      0.002000000000     0.886900000000     0.650000000000     0          
O        O      0.047200000000     0.940700000000     0.702080000000     0          
O        O      0.384850000000     0.683450000000     0.665560000000     0          
O        O      0.379300000000     0.555350000000     0.765560000000     0          
O        O      0.452800000000     0.666950000000     0.798380000000     0          
O        O      0.375000000000     0.625000000000     0.602380000000     0          
O        O      0.498000000000     0.613100000000     0.650000000000     0          
O        O      0.452800000000     0.559300000000     0.702080000000     0          
O        O      0.365150000000     0.933450000000     0.734440000000     0          
O        O      0.370700000000     0.805350000000     0.634440000000     0          
O        O      0.297200000000     0.916950000000     0.601620000000     0          
O        O      0.252000000000     0.863100000000     0.750000000000     0          
O        O      0.355300000000     0.750000000000     0.700000000000     0          
O        O      0.297200000000     0.809300000000     0.697920000000     0          
O        O      0.134850000000     0.566550000000     0.734440000000     0          
O        O      0.129300000000     0.694650000000     0.634440000000     0          
O        O      0.202800000000     0.583050000000     0.601620000000     0          
O        O      0.248000000000     0.636900000000     0.750000000000     0          
O        O      0.144700000000     0.750000000000     0.700000000000     0          
O        O      0.202800000000     0.690700000000     0.697920000000     0          
O        O      0.365150000000     0.566550000000     0.665560000000     0          
O        O      0.370700000000     0.694650000000     0.765560000000     0          
O        O      0.297200000000     0.583050000000     0.798380000000     0          
O        O      0.252000000000     0.636900000000     0.650000000000     0          
O        O      0.297200000000     0.690700000000     0.702080000000     0          
O        O      0.134850000000     0.933450000000     0.665560000000     0          
O        O      0.129300000000     0.805350000000     0.765560000000     0          
O        O      0.202800000000     0.916950000000     0.798380000000     0          
O        O      0.248000000000     0.863100000000     0.650000000000     0          
O        O      0.202800000000     0.809300000000     0.702080000000     0          
O        O      0.115150000000     0.683450000000     0.934440000000     0          
O        O      0.120700000000     0.555350000000     0.834440000000     0          
O        O      0.047200000000     0.666950000000     0.801620000000     0          
O        O      0.125000000000     0.625000000000     0.997620000000     0          
O        O      0.002000000000     0.613100000000     0.950000000000     0          
O        O      0.105300000000     0.500000000000     0.900000000000     0          
O        O      0.047200000000     0.559300000000     0.897920000000     0          
O        O      0.384850000000     0.816550000000     0.934440000000     0          
O        O      0.379300000000     0.944650000000     0.834440000000     0          
O        O      0.452800000000     0.833050000000     0.801620000000     0          
O        O      0.375000000000     0.875000000000     0.997620000000     0          
O        O      0.498000000000     0.886900000000     0.950000000000     0          
O        O      0.394700000000     0.500000000000     0.900000000000     0          
O        O      0.452800000000     0.940700000000     0.897920000000     0          
O        O      0.115150000000     0.816550000000     0.865560000000     0          
O        O      0.120700000000     0.944650000000     0.965560000000     0          
O        O      0.047200000000     0.833050000000     0.998380000000     0          
O        O      0.125000000000     0.875000000000     0.802380000000     0          
O        O      0.002000000000     0.886900000000     0.850000000000     0          
O        O      0.047200000000     0.940700000000     0.902080000000     0          
O        O      0.384850000000     0.683450000000     0.865560000000     0          
O        O      0.379300000000     0.555350000000     0.965560000000     0          
O        O      0.452800000000     0.666950000000     0.998380000000     0          
O        O      0.375000000000     0.625000000000     0.802380000000     0          
O        O      0.498000000000     0.613100000000     0.850000000000     0          
O        O      0.452800000000     0.559300000000     0.902080000000     0          
O        O      0.365150000000     0.933450000000     0.934440000000     0          
O        O      0.370700000000     0.805350000000     0.834440000000     0          
O        O      0.297200000000     0.916950000000     0.801620000000     0          
O        O      0.252000000000     0.863100000000     0.950000000000     0          
O        O      0.355300000000     0.750000000000     0.900000000000     0          
O        O      0.297200000000     0.809300000000     0.897920000000     0          
O        O      0.134850000000     0.566550000000     0.934440000000     0          
O        O      0.129300000000     0.694650000000     0.834440000000     0          
O        O      0.202800000000     0.583050000000     0.801620000000     0          
O        O      0.248000000000     0.636900000000     0.950000000000     0          
O        O      0.144700000000     0.750000000000     0.900000000000     0          
O        O      0.202800000000     0.690700000000     0.897920000000     0          
O        O      0.365150000000     0.566550000000     0.865560000000     0          
O        O      0.370700000000     0.694650000000     0.965560000000     0          
O        O      0.297200000000     0.583050000000     0.998380000000     0          
O        O      0.252000000000     0.636900000000     0.850000000000     0          
O        O      0.297200000000     0.690700000000     0.902080000000     0          
O        O      0.134850000000     0.933450000000     0.865560000000     0          
O        O      0.129300000000     0.805350000000     0.965560000000     0          
O        O      0.202800000000     0.916950000000     0.998380000000     0          
O        O      0.248000000000     0.863100000000     0.850000000000     0          
O        O      0.202800000000     0.809300000000     0.902080000000     0          
O        O      0.615150000000     0.183450000000     0.134440000000     0          
O        O      0.620700000000     0.055350000000     0.034440000000     0          
O        O      0.547200000000     0.166950000000     0.001620000000     0          
O        O      0.625000000000     0.125000000000     0.197620000000     0          
O        O      0.502000000000     0.113100000000     0.150000000000     0          
O        O      0.605300000000     0.000000000000     0.100000000000     0          
O        O      0.547200000000     0.059300000000     0.097920000000     0          
O        O      0.884850000000     0.316550000000     0.134440000000     0          
O        O      0.879300000000     0.444650000000     0.034440000000     0          
O        O      0.952800000000     0.333050000000     0.001620000000     0          
O        O      0.875000000000     0.375000000000     0.197620000000     0          
O        O      0.998000000000     0.386900000000     0.150000000000     0          
O        O      0.894700000000     0.000000000000     0.100000000000     0          
O        O      0.952800000000     0.440700000000     0.097920000000     0          
O        O      0.615150000000     0.316550000000     0.065560000000     0          
O        O      0.620700000000     0.444650000000     0.165560000000     0          
O        O      0.547200000000     0.333050000000     0.198380000000     0          
O        O      0.625000000000     0.375000000000     0.002380000000     0          
O        O      0.502000000000     0.386900000000     0.050000000000     0          
O        O      0.547200000000     0.440700000000     0.102080000000     0          
O        O      0.884850000000     0.183450000000     0.065560000000     0          
O        O      0.879300000000     0.055350000000     0.165560000000     0          
O        O      0.952800000000     0.166950000000     0.198380000000     0          
O        O      0.875000000000     0.125000000000     0.002380000000     0          
O        O      0.998000000000     0.113100000000     0.050000000000     0          
O        O      0.952800000000     0.059300000000     0.102080000000     0          
O        O      0.865150000000     0.433450000000     0.134440000000     0          
O        O      0.870700000000     0.305350000000     0.034440000000     0          
O        O      0.797200000000     0.416950000000     0.001620000000     0          
O        O      0.752000000000     0.363100000000     0.150000000000     0          
O        O      0.855300000000     0.250000000000     0.100000000000     0          
O        O      0.797200000000     0.309300000000     0.097920000000     0          
O        O      0.634850000000     0.066550000000     0.134440000000     0          
O        O      0.629300000000     0.194650000000     0.034440000000     0          
O        O      0.702800000000     0.083050000000     0.001620000000     0          
O        O      0.748000000000     0.136900000000     0.150000000000     0          
O        O      0.644700000000     0.250000000000     0.100000000000     0          
O        O      0.702800000000     0.190700000000     0.097920000000     0          
O        O      0.865150000000     0.066550000000     0.065560000000     0          
O        O      0.870700000000     0.194650000000     0.165560000000     0          
O        O      0.797200000000     0.083050000000     0.198380000000     0          
O        O      0.752000000000     0.136900000000     0.050000000000     0          
O        O      0.797200000000     0.190700000000     0.102080000000     0          
O        O      0.634850000000     0.433450000000     0.065560000000     0          
O        O      0.629300000000     0.305350000000     0.165560000000     0          
O        O      0.702800000000     0.416950000000     0.198380000000     0          
O        O      0.748000000000     0.363100000000     0.050000000000     0          
O        O      0.702800000000     0.309300000000     0.102080000000     0          
O        O      0.615150000000     0.183450000000     0.334440000000     0          
O        O      0.620700000000     0.055350000000     0.234440000000     0          
O        O      0.547200000000     0.166950000000     0.201620000000     0          
O        O      0.625000000000     0.125000000000     0.397620000000     0          
O        O      0.502000000000     0.113100000000     0.350000000000     0          
O        O      0.605300000000     0.000000000000     0.300000000000     0          
O        O      0.547200000000     0.059300000000     0.297920000000     0          
O        O      0.884850000000     0.316550000000     0.334440000000     0          
O        O      0.879300000000     0.444650000000     0.234440000000     0          
O        O      0.952800000000     0.333050000000     0.201620000000     0          
O        O      0.875000000000     0.375000000000     0.397620000000     0          
O        O      0.998000000000     0.386900000000     0.350000000000     0          
O        O      0.894700000000     0.000000000000     0.300000000000     0          
O        O      0.952800000000     0.440700000000     0.297920000000     0          
O        O      0.615150000000     0.316550000000     0.265560000000     0          
O        O      0.620700000000     0.444650000000     0.365560000000     0          
O        O      0.547200000000     0.333050000000     0.398380000000     0          
O        O      0.625000000000     0.375000000000     0.202380000000     0          
O        O      0.502000000000     0.386900000000     0.250000000000     0          
O        O      0.547200000000     0.440700000000     0.302080000000     0          
O        O      0.884850000000     0.183450000000     0.265560000000     0          
O        O      0.879300000000     0.055350000000     0.365560000000     0          
O        O      0.952800000000     0.166950000000     0.398380000000     0          
O        O      0.875000000000     0.125000000000     0.202380000000     0          
O        O      0.998000000000     0.113100000000     0.250000000000     0          
O        O      0.952800000000     0.059300000000     0.302080000000     0          
O        O      0.865150000000     0.433450000000     0.334440000000     0          
O        O      0.870700000000     0.305350000000     0.234440000000     0          
O        O      0.797200000000     0.416950000000     0.201620000000     0          
O        O      0.752000000000     0.363100000000     0.350000000000     0          
O        O      0.855300000000     0.250000000000     0.300000000000     0          
O        O      0.797200000000     0.309300000000     0.297920000000     0          
O        O      0.634850000000     0.066550000000     0.334440000000     0          
O        O      0.629300000000     0.194650000000     0.234440000000     0          
O        O      0.702800000000     0.083050000000     0.201620000000     0          
O        O      0.748000000000     0.136900000000     0.350000000000     0          
O        O      0.644700000000     0.250000000000     0.300000000000     0          
O        O      0.702800000000     0.190700000000     0.297920000000     0          
O        O      0.865150000000     0.066550000000     0.265560000000     0          
O        O      0.870700000000     0.194650000000     0.365560000000     0          
O        O      0.797200000000     0.083050000000     0.398380000000     0          
O        O      0.752000000000     0.136900000000     0.250000000000     0          
O        O      0.797200000000     0.190700000000     0.302080000000     0          
O        O      0.634850000000     0.433450000000     0.265560000000     0          
O        O      0.629300000000     0.305350000000     0.365560000000     0          
O        O      0.702800000000     0.416950000000     0.398380000000     0          
O        O      0.748000000000     0.363100000000     0.250000000000     0          
O        O      0.702800000000     0.309300000000     0.302080000000     0          
O        O      0.615150000000     0.183450000000     0.534440000000     0          
O        O      0.620700000000     0.055350000000     0.434440000000     0          
O        O      0.547200000000     0.166950000000     0.401620000000     0          
O        O      0.625000000000     0.125000000000     0.597620000000     0          
O        O      0.502000000000     0.113100000000     0.550000000000     0          
O        O      0.605300000000     0.000000000000     0.500000000000     0          
O        O      0.547200000000     0.059300000000     0.497920000000     0          
O        O      0.884850000000     0.316550000000     0.534440000000     0          
O        O      0.879300000000     0.444650000000     0.434440000000     0          
O        O      0.952800000000     0.333050000000     0.401620000000     0          
O        O      0.875000000000     0.375000000000     0.597620000000     0          
O        O      0.998000000000     0.386900000000     0.550000000000     0          
O        O      0.894700000000     0.000000000000     0.500000000000     0          
O        O      0.952800000000     0.440700000000     0.497920000000     0          
O        O      0.615150000000     0.316550000000     0.465560000000     0          
O        O      0.620700000000     0.444650000000     0.565560000000     0          
O        O      0.547200000000     0.333050000000     0.598380000000     0          
O        O      0.625000000000     0.375000000000     0.402380000000     0          
O        O      0.502000000000     0.386900000000     0.450000000000     0          
O        O      0.547200000000     0.440700000000     0.502080000000     0          
O        O      0.884850000000     0.183450000000     0.465560000000     0          
O        O      0.879300000000     0.055350000000     0.565560000000     0          
O        O      0.952800000000     0.166950000000     0.598380000000     0          
O        O      0.875000000000     0.125000000000     0.402380000000     0          
O        O      0.998000000000     0.113100000000     0.450000000000     0          
O        O      0.952800000000     0.059300000000     0.502080000000     0          
O        O      0.865150000000     0.433450000000     0.534440000000     0          
O        O      0.870700000000     0.305350000000     0.434440000000     0          
O        O      0.797200000000     0.416950000000     0.401620000000     0          
O        O      0.752000000000     0.363100000000     0.550000000000     0          
O        O      0.855300000000     0.250000000000     0.500000000000     0          
O        O      0.797200000000     0.309300000000     0.497920000000     0          
O        O      0.634850000000     0.066550000000     0.534440000000     0          
O        O      0.629300000000     0.194650000000     0.434440000000     0          
O        O      0.702800000000     0.083050000000     0.401620000000     0          
O        O      0.748000000000     0.136900000000     0.550000000000     0          
O        O      0.644700000000     0.250000000000     0.500000000000     0          
O        O      0.702800000000     0.190700000000     0.497920000000     0          
O        O      0.865150000000     0.066550000000     0.465560000000     0          
O        O      0.870700000000     0.194650000000     0.565560000000     0          
O        O      0.797200000000     0.083050000000     0.598380000000     0          
O        O      0.752000000000     0.136900000000     0.450000000000     0          
O        O      0.797200000000     0.190700000000     0.502080000000     0          
O        O      0.634850000000     0.433450000000     0.465560000000     0          
O        O      0.629300000000     0.305350000000     0.565560000000     0          
O        O      0.702800000000     0.416950000000     0.598380000000     0          
O        O      0.748000000000     0.363100000000     0.450000000000     0          
O        O      0.702800000000     0.309300000000     0.502080000000     0          
O        O      0.615150000000     0.183450000000     0.734440000000     0          
O        O      0.620700000000     0.055350000000     0.634440000000     0          
O        O      0.547200000000     0.166950000000     0.601620000000     0          
O        O      0.625000000000     0.125000000000     0.797620000000     0          
O        O      0.502000000000     0.113100000000     0.750000000000     0          
O        O      0.605300000000     0.000000000000     0.700000000000     0          
O        O      0.547200000000     0.059300000000     0.697920000000     0          
O        O      0.884850000000     0.316550000000     0.734440000000     0          
O        O      0.879300000000     0.444650000000     0.634440000000     0          
O        O      0.952800000000     0.333050000000     0.601620000000     0          
O        O      0.875000000000     0.375000000000     0.797620000000     0          
O        O      0.998000000000     0.386900000000     0.750000000000     0          
O        O      0.894700000000     0.000000000000     0.700000000000     0          
O        O      0.952800000000     0.440700000000     0.697920000000     0          
O        O      0.615150000000     0.316550000000     0.665560000000     0          
O        O      0.620700000000     0.444650000000     0.765560000000     0          
O        O      0.547200000000     0.333050000000     0.798380000000     0          
O        O      0.625000000000     0.375000000000     0.602380000000     0          
O        O      0.502000000000     0.386900000000     0.650000000000     0          
O        O      0.547200000000     0.440700000000     0.702080000000     0          
O        O      0.884850000000     0.183450000000     0.665560000000     0          
O        O      0.879300000000     0.055350000000     0.765560000000     0          
O        O      0.952800000000     0.166950000000     0.798380000000     0          
O        O      0.875000000000     0.125000000000     0.602380000000     0          
O        O      0.998000000000     0.113100000000     0.650000000000     0          
O        O      0.952800000000     0.059300000000     0.702080000000     0          
O        O      0.865150000000     0.433450000000     0.734440000000     0          
O        O      0.870700000000     0.305350000000     0.634440000000     0          
O        O      0.797200000000     0.416950000000     0.601620000000     0          
O        O      0.752000000000     0.363100000000     0.750000000000     0          
O        O      0.855300000000     0.250000000000     0.700000000000     0          
O        O      0.797200000000     0.309300000000     0.697920000000     0          
O        O      0.634850000000     0.066550000000     0.734440000000     0          
O        O      0.629300000000     0.194650000000     0.634440000000     0          
O        O      0.702800000000     0.083050000000     0.601620000000     0          
O        O      0.748000000000     0.136900000000     0.750000000000     0          
O        O      0.644700000000     0.250000000000     0.700000000000     0          
O        O      0.702800000000     0.190700000000     0.697920000000     0          
O        O      0.865150000000     0.066550000000     0.665560000000     0          
O        O      0.870700000000     0.194650000000     0.765560000000     0          
O        O      0.797200000000     0.083050000000     0.798380000000     0          
O        O      0.752000000000     0.136900000000     0.650000000000     0          
O        O      0.797200000000     0.190700000000     0.702080000000     0          
O        O      0.634850000000     0.433450000000     0.665560000000     0          
O        O      0.629300000000     0.305350000000     0.765560000000     0          
O        O      0.702800000000     0.416950000000     0.798380000000     0          
O        O      0.748000000000     0.363100000000     0.650000000000     0          
O        O      0.702800000000     0.309300000000     0.702080000000     0          
O        O      0.615150000000     0.183450000000     0.934440000000     0          
O        O      0.620700000000     0.055350000000     0.834440000000     0          
O        O      0.547200000000     0.166950000000     0.801620000000     0          
O        O      0.625000000000     0.125000000000     0.997620000000     0          
O        O      0.502000000000     0.113100000000     0.950000000000     0          
O        O      0.605300000000     0.000000000000     0.900000000000     0          
O        O      0.547200000000     0.059300000000     0.897920000000     0          
O        O      0.884850000000     0.316550000000     0.934440000000     0          
O        O      0.879300000000     0.444650000000     0.834440000000     0          
O        O      0.952800000000     0.333050000000     0.801620000000     0          
O        O      0.875000000000     0.375000000000     0.997620000000     0          
O        O      0.998000000000     0.386900000000     0.950000000000     0          
O        O      0.894700000000     0.000000000000     0.900000000000     0          
O        O      0.952800000000     0.440700000000     0.897920000000     0          
O        O      0.615150000000     0.316550000000     0.865560000000     0          
O        O      0.620700000000     0.444650000000     0.965560000000     0          
O        O      0.547200000000     0.333050000000     0.998380000000     0          
O        O      0.625000000000     0.375000000000     0.802380000000     0          
O        O      0.502000000000     0.386900000000     0.850000000000     0          
O        O      0.547200000000     0.440700000000     0.902080000000     0          
O        O      0.884850000000     0.183450000000     0.865560000000     0          
O        O      0.879300000000     0.055350000000     0.965560000000     0          
O        O      0.952800000000     0.166950000000     0.998380000000     0          
O        O      0.875000000000     0.125000000000     0.802380000000     0          
O        O      0.998000000000     0.113100000000     0.850000000000     0          
O        O      0.952800000000     0.059300000000     0.902080000000     0          
O        O      0.865150000000     0.433450000000     0.934440000000     0          
O        O      0.870700000000     0.305350000000     0.834440000000     0          
O        O      0.797200000000     0.416950000000     0.801620000000     0          
O        O      0.752000000000     0.363100000000     0.950000000000     0          
O        O      0.855300000000     0.250000000000     0.900000000000     0          
O        O      0.797200000000     0.309300000000     0.897920000000     0          
O        O      0.634850000000     0.066550000000     0.934440000000     0          
O        O      0.629300000000     0.194650000000     0.834440000000     0          
O        O      0.702800000000     0.083050000000     0.801620000000     0          
O        O      0.748000000000     0.136900000000     0.950000000000     0          
O        O      0.644700000000     0.250000000000     0.900000000000     0          
O        O      0.702800000000     0.190700000000     0.897920000000     0          
O        O      0.865150000000     0.066550000000     0.865560000000     0          
O        O      0.870700000000     0.194650000000     0.965560000000     0          
O        O      0.797200000000     0.083050000000     0.998380000000     0          
O        O      0.752000000000     0.136900000000     0.850000000000     0          
O        O      0.797200000000     0.190700000000     0.902080000000     0          
O        O      0.634850000000     0.433450000000     0.865560000000     0          
O        O      0.629300000000     0.305350000000     0.965560000000     0          
O        O      0.702800000000     0.416950000000     0.998380000000     0          
O        O      0.748000000000     0.363100000000     0.850000000000     0          
O        O      0.702800000000     0.309300000000     0.902080000000     0          
O        O      0.615150000000     0.683450000000     0.134440000000     0          
O        O      0.620700000000     0.555350000000     0.034440000000     0          
O        O      0.547200000000     0.666950000000     0.001620000000     0          
O        O      0.625000000000     0.625000000000     0.197620000000     0          
O        O      0.502000000000     0.613100000000     0.150000000000     0          
O        O      0.605300000000     0.500000000000     0.100000000000     0          
O        O      0.547200000000     0.559300000000     0.097920000000     0          
O        O      0.884850000000     0.816550000000     0.134440000000     0          
O        O      0.879300000000     0.944650000000     0.034440000000     0          
O        O      0.952800000000     0.833050000000     0.001620000000     0          
O        O      0.875000000000     0.875000000000     0.197620000000     0          
O        O      0.998000000000     0.886900000000     0.150000000000     0          
O        O      0.894700000000     0.500000000000     0.100000000000     0          
O        O      0.952800000000     0.940700000000     0.097920000000     0          
O        O      0.615150000000     0.816550000000     0.065560000000     0          
O        O      0.620700000000     0.944650000000     0.165560000000     0          
O        O      0.547200000000     0.833050000000     0.198380000000     0          
O        O      0.625000000000     0.875000000000     0.002380000000     0          
O        O      0.502000000000     0.886900000000     0.050000000000     0          
O        O      0.547200000000     0.940700000000     0.102080000000     0          
O        O      0.884850000000     0.683450000000     0.065560000000     0          
O        O      0.879300000000     0.555350000000     0.165560000000     0          
O        O      0.952800000000     0.666950000000     0.198380000000     0          
O        O      0.875000000000     0.625000000000     0.002380000000     0          
O        O      0.998000000000     0.613100000000     0.050000000000     0          
O        O      0.952800000000     0.559300000000     0.102080000000     0          
O        O      0.865150000000     0.933450000000     0.134440000000     0          
O        O      0.870700000000     0.805350000000     0.034440000000     0          
O        O      0.797200000000     0.916950000000     0.001620000000     0          
O        O      0.752000000000     0.863100000000     0.150000000000     0          
O        O      0.855300000000     0.750000000000     0.100000000000     0          
O        O      0.797200000000     0.809300000000     0.097920000000     0          
O        O      0.634850000000     0.566550000000     0.134440000000     0          
O        O      0.629300000000     0.694650000000     0.034440000000     0          
O        O      0.702800000000     0.583050000000     0.001620000000     0          
O        O      0.748000000000     0.636900000000     0.150000000000     0          
O        O      0.644700000000     0.750000000000     0.100000000000     0          
O        O      0.702800000000     0.690700000000     0.097920000000     0          
O        O      0.865150000000     0.566550000000     0.065560000000     0          
O        O      0.870700000000     0.694650000000     0.165560000000     0          
O        O      0.797200000000     0.583050000000     0.198380000000     0          
O        O      0.752000000000     0.636900000000     0.050000000000     0          
O        O      0.797200000000     0.690700000000     0.102080000000     0          
O        O      0.634850000000     0.933450000000     0.065560000000     0          
O        O      0.629300000000     0.805350000000     0.165560000000     0          
O        O      0.702800000000     0.916950000000     0.198380000000     0          
O        O      0.748000000000     0.863100000000     0.050000000000     0          
O        O      0.702800000000     0.809300000000     0.102080000000     0          
O        O      0.615150000000     0.683450000000     0.334440000000     0          
O        O      0.620700000000     0.555350000000     0.234440000000     0          
O        O      0.547200000000     0.666950000000     0.201620000000     0          
O        O      0.625000000000     0.625000000000     0.397620000000     0          
O        O      0.502000000000     0.613100000000     0.350000000000     0          
O        O      0.605300000000     0.500000000000     0.300000000000     0          
O        O      0.547200000000     0.559300000000     0.297920000000     0          
O        O      0.884850000000     0.816550000000     0.334440000000     0          
O        O      0.879300000000     0.944650000000     0.234440000000     0          
O        O      0.952800000000     0.833050000000     0.201620000000     0          
O        O      0.875000000000     0.875000000000     0.397620000000     0          
O        O      0.998000000000     0.886900000000     0.350000000000     0          
O        O      0.894700000000     0.500000000000     0.300000000000     0          
O        O      0.952800000000     0.940700000000     0.297920000000     0          
O        O      0.615150000000     0.816550000000     0.265560000000     0          
O        O      0.620700000000     0.944650000000     0.365560000000     0          
O        O      0.547200000000     0.833050000000     0.398380000000     0          
O        O      0.625000000000     0.875000000000     0.202380000000     0          
O        O      0.502000000000     0.886900000000     0.250000000000     0          
O        O      0.547200000000     0.940700000000     0.302080000000     0          
O        O      0.884850000000     0.683450000000     0.265560000000     0          
O        O      0.879300000000     0.555350000000     0.365560000000     0          
O        O      0.952800000000     0.666950000000     0.398380000000     0          
O        O      0.875000000000     0.625000000000     0.202380000000     0          
O        O      0.998000000000     0.613100000000     0.250000000000     0          
O        O      0.952800000000     0.559300000000     0.302080000000     0          
O        O      0.865150000000     0.933450000000     0.334440000000     0          
O        O      0.870700000000     0.805350000000     0.234440000000     0          
O        O      0.797200000000     0.916950000000     0.201620000000     0          
O        O      0.752000000000     0.863100000000     0.350000000000     0          
O        O      0.855300000000     0.750000000000     0.300000000000     0          
O        O      0.797200000000     0.809300000000     0.297920000000     0          
O        O      0.634850000000     0.566550000000     0.334440000000     0          
O        O      0.629300000000     0.694650000000     0.234440000000     0          
O        O      0.702800000000     0.583050000000     0.201620000000     0          
O        O      0.748000000000     0.636900000000     0.350000000000     0          
O        O      0.644700000000     0.750000000000     0.300000000000     0          
O        O      0.702800000000     0.690700000000     0.297920000000     0          
O        O      0.865150000000     0.566550000000     0.265560000000     0          
O        O      0.870700000000     0.694650000000     0.365560000000     0          
O        O      0.797200000000     0.583050000000     0.398380000000     0          
O        O      0.752000000000     0.636900000000     0.250000000000     0          
O        O      0.797200000000     0.690700000000     0.302080000000     0          
O        O      0.634850000000     0.933450000000     0.265560000000     0          
O        O      0.629300000000     0.805350000000     0.365560000000     0          
O        O      0.702800000000     0.916950000000     0.398380000000     0          
O        O      0.748000000000     0.863100000000     0.250000000000     0          
O        O      0.702800000000     0.809300000000     0.302080000000     0          
O        O      0.615150000000     0.683450000000     0.534440000000     0          
O        O      0.620700000000     0.555350000000     0.434440000000     0          
O        O      0.547200000000     0.666950000000     0.401620000000     0          
O        O      0.625000000000     0.625000000000     0.597620000000     0          
O        O      0.502000000000     0.613100000000     0.550000000000     0          
O        O      0.605300000000     0.500000000000     0.500000000000     0          
O        O      0.547200000000     0.559300000000     0.497920000000     0          
O        O      0.884850000000     0.816550000000     0.534440000000     0          
O        O      0.879300000000     0.944650000000     0.434440000000     0          
O        O      0.952800000000     0.833050000000     0.401620000000     0          
O        O      0.875000000000     0.875000000000     0.597620000000     0          
O        O      0.998000000000     0.886900000000     0.550000000000     0          
O        O      0.894700000000     0.500000000000     0.500000000000     0          
O        O      0.952800000000     0.940700000000     0.497920000000     0          
O        O      0.615150000000     0.816550000000     0.465560000000     0          
O        O      0.620700000000     0.944650000000     0.565560000000     0          
O        O      0.547200000000     0.833050000000     0.598380000000     0          
O        O      0.625000000000     0.875000000000     0.402380000000     0          
O        O      0.502000000000     0.886900000000     0.450000000000     0          
O        O      0.547200000000     0.940700000000     0.502080000000     0          
O        O      0.884850000000     0.683450000000     0.465560000000     0          
O        O      0.879300000000     0.555350000000     0.565560000000     0          
O        O      0.952800000000     0.666950000000     0.598380000000     0          
O        O      0.875000000000     0.625000000000     0.402380000000     0          
O        O      0.998000000000     0.613100000000     0.450000000000     0          
O        O      0.952800000000     0.559300000000     0.502080000000     0          
O        O      0.865150000000     0.933450000000     0.534440000000     0          
O        O      0.870700000000     0.805350000000     0.434440000000     0          
O        O      0.797200000000     0.916950000000     0.401620000000     0          
O        O      0.752000000000     0.863100000000     0.550000000000     0          
O        O      0.855300000000     0.750000000000     0.500000000000     0          
O        O      0.797200000000     0.809300000000     0.497920000000     0          
O        O      0.634850000000     0.566550000000     0.534440000000     0          
O        O      0.629300000000     0.694650000000     0.434440000000     0          
O        O      0.702800000000     0.583050000000     0.401620000000     0          
O        O      0.748000000000     0.636900000000     0.550000000000     0          
O        O      0.644700000000     0.750000000000     0.500000000000     0          
O        O      0.702800000000     0.690700000000     0.497920000000     0          
O        O      0.865150000000     0.566550000000     0.465560000000     0          
O        O      0.870700000000     0.694650000000     0.565560000000     0          
O        O      0.797200000000     0.583050000000     0.598380000000     0          
O        O      0.752000000000     0.636900000000     0.450000000000     0          
O        O      0.797200000000     0.690700000000     0.502080000000     0          
O        O      0.634850000000     0.933450000000     0.465560000000     0          
O        O      0.629300000000     0.805350000000     0.565560000000     0          
O        O      0.702800000000     0.916950000000     0.598380000000     0          
O        O      0.748000000000     0.863100000000     0.450000000000     0          
O        O      0.702800000000     0.809300000000     0.502080000000     0          
O        O      0.615150000000     0.683450000000     0.734440000000     0          
O        O      0.620700000000     0.555350000000     0.634440000000     0          
O        O      0.547200000000     0.666950000000     0.601620000000     0          
O        O      0.625000000000     0.625000000000     0.797620000000     0          
O        O      0.502000000000     0.613100000000     0.750000000000     0          
O        O      0.605300000000     0.500000000000     0.700000000000     0          
O        O      0.547200000000     0.559300000000     0.697920000000     0          
O        O      0.884850000000     0.816550000000     0.734440000000     0          
O        O      0.879300000000     0.944650000000     0.634440000000     0          
O        O      0.952800000000     0.833050000000     0.601620000000     0          
O        O      0.875000000000     0.875000000000     0.797620000000     0          
O        O      0.998000000000     0.886900000000     0.750000000000     0          
O        O      0.894700000000     0.500000000000     0.700000000000     0          
O        O      0.952800000000     0.940700000000     0.697920000000     0          
O        O      0.615150000000     0.816550000000     0.665560000000     0          
O        O      0.620700000000     0.944650000000     0.765560000000     0          
O        O      0.547200000000     0.833050000000     0.798380000000     0          
O        O      0.625000000000     0.875000000000     0.602380000000     0          
O        O      0.502000000000     0.886900000000     0.650000000000     0          
O        O      0.547200000000     0.940700000000     0.702080000000     0          
O        O      0.884850000000     0.683450000000     0.665560000000     0          
O        O      0.879300000000     0.555350000000     0.765560000000     0          
O        O      0.952800000000     0.666950000000     0.798380000000     0          
O        O      0.875000000000     0.625000000000     0.602380000000     0          
O        O      0.998000000000     0.613100000000     0.650000000000     0          
O        O      0.952800000000     0.559300000000     0.702080000000     0          
O        O      0.865150000000     0.933450000000     0.734440000000     0          
O        O      0.870700000000     0.805350000000     0.634440000000     0          
O        O      0.797200000000     0.916950000000     0.601620000000     0          
O        O      0.752000000000     0.863100000000     0.750000000000     0          
O        O      0.855300000000     0.750000000000     0.700000000000     0          
O        O      0.797200000000     0.809300000000     0.697920000000     0          
O        O      0.634850000000     0.566550000000     0.734440000000     0          
O        O      0.629300000000     0.694650000000     0.634440000000     0          
O        O      0.702800000000     0.583050000000     0.601620000000     0          
O        O      0.748000000000     0.636900000000     0.750000000000     0          
O        O      0.644700000000     0.750000000000     0.700000000000     0          
O        O      0.702800000000     0.690700000000     0.697920000000     0          
O        O      0.865150000000     0.566550000000     0.665560000000     0          
O        O      0.870700000000     0.694650000000     0.765560000000     0          
O        O      0.797200000000     0.583050000000     0.798380000000     0          
O        O      0.752000000000     0.636900000000     0.650000000000     0          
O        O      0.797200000000     0.690700000000     0.702080000000     0          
O        O      0.634850000000     0.933450000000     0.665560000000     0          
O        O      0.629300000000     0.805350000000     0.765560000000     0          
O        O      0.702800000000     0.916950000000     0.798380000000     0          
O        O      0.748000000000     0.863100000000     0.650000000000     0          
O        O      0.702800000000     0.809300000000     0.702080000000     0          
O        O      0.615150000000     0.683450000000     0.934440000000     0          
O        O      0.620700000000     0.555350000000     0.834440000000     0          
O        O      0.547200000000     0.666950000000     0.801620000000     0          
O        O      0.625000000000     0.625000000000     0.997620000000     0          
O        O      0.502000000000     0.613100000000     0.950000000000     0          
O        O      0.605300000000     0.500000000000     0.900000000000     0          
O        O      0.547200000000     0.559300000000     0.897920000000     0          
O        O      0.884850000000     0.816550000000     0.934440000000     0          
O        O      0.879300000000     0.944650000000     0.834440000000     0          
O        O      0.952800000000     0.833050000000     0.801620000000     0          
O        O      0.875000000000     0.875000000000     0.997620000000     0          
O        O      0.998000000000     0.886900000000     0.950000000000     0          
O        O      0.894700000000     0.500000000000     0.900000000000     0          
O        O      0.952800000000     0.940700000000     0.897920000000     0          
O        O      0.615150000000     0.816550000000     0.865560000000     0          
O        O      0.620700000000     0.944650000000     0.965560000000     0          
O        O      0.547200000000     0.833050000000     0.998380000000     0          
O        O      0.625000000000     0.875000000000     0.802380000000     0          
O        O      0.502000000000     0.886900000000     0.850000000000     0          
O        O      0.547200000000     0.940700000000     0.902080000000     0          
O        O      0.884850000000     0.683450000000     0.865560000000     0          
O        O      0.879300000000     0.555350000000     0.965560000000     0          
O        O      0.952800000000     0.666950000000     0.998380000000     0          
O        O      0.875000000000     0.625000000000     0.802380000000     0          
O        O      0.998000000000     0.613100000000     0.850000000000     0          
O        O      0.952800000000     0.559300000000     0.902080000000     0          
O        O      0.865150000000     0.933450000000     0.934440000000     0          
O        O      0.870700000000     0.805350000000     0.834440000000     0          
O        O      0.797200000000     0.916950000000     0.801620000000     0          
O        O      0.752000000000     0.863100000000     0.950000000000     0          
O        O      0.855300000000     0.750000000000     0.900000000000     0          
O        O      0.797200000000     0.809300000000     0.897920000000     0          
O        O      0.634850000000     0.566550000000     0.934440000000     0          
O        O      0.629300000000     0.694650000000     0.834440000000     0          
O        O      0.702800000000     0.583050000000     0.801620000000     0          
O        O      0.748000000000     0.636900000000     0.950000000000     0          
O        O      0.644700000000     0.750000000000     0.900000000000     0          
O        O      0.702800000000     0.690700000000     0.897920000000     0          
O        O      0.865150000000     0.566550000000     0.865560000000     0          
O        O      0.870700000000     0.694650000000     0.965560000000     0          
O        O      0.797200000000     0.583050000000     0.998380000000     0          
O        O      0.752000000000     0.636900000000     0.850000000000     0          
O        O      0.797200000000     0.690700000000     0.902080000000     0          
O        O      0.634850000000     0.933450000000     0.865560000000     0          
O        O      0.629300000000     0.805350000000     0.965560000000     0          
O        O      0.702800000000     0.916950000000     0.998380000000     0          
O        O      0.748000000000     0.863100000000     0.850000000000     0          
O        O      0.702800000000     0.809300000000     0.902080000000     0          


