data_zeolite

_audit_creation_method RASPA-1.0
_audit_creation_date 2021-6-6
_audit_author_name ''

_cell_length_a    27.134
_cell_length_b    27.134
_cell_length_c    27.134
_cell_angle_alpha 90
_cell_angle_beta  90
_cell_angle_gamma 90
_cell_volume      19977.5

_symmetry_cell_setting          cubic
_symmetry_space_group_name_Hall 'P 1'
_symmetry_space_group_name_H-M  'P 1'
_symmetry_Int_Tables_number     1

_symmetry_equiv_pos_as_xyz 'x,y,z'

loop_
_atom_site_label
_atom_site_type_symbol
_atom_site_fract_x
_atom_site_fract_y
_atom_site_fract_z
_atom_site_charge
O        O      0.320850000000     0.235800000000     0.059000000000     0          
T        Si     0.330800000000     0.294200000000     0.062500000000     0          
O        O      0.389200000000     0.195850000000     0.184000000000     0          
T        Si     0.330800000000     0.205800000000     0.187500000000     0          
O        O      0.429150000000     0.264200000000     0.309000000000     0          
T        Si     0.419200000000     0.205800000000     0.312500000000     0          
O        O      0.360800000000     0.304150000000     0.434000000000     0          
T        Si     0.419200000000     0.294200000000     0.437500000000     0          
O        O      0.320850000000     0.264200000000     0.191000000000     0          
O        O      0.360800000000     0.195850000000     0.316000000000     0          
O        O      0.429150000000     0.235800000000     0.441000000000     0          
O        O      0.389200000000     0.304150000000     0.066000000000     0          
O        O      0.059000000000     0.320850000000     0.235800000000     0          
T        Si     0.062500000000     0.330800000000     0.294200000000     0          
O        O      0.304150000000     0.434000000000     0.360800000000     0          
T        Si     0.294200000000     0.437500000000     0.419200000000     0          
O        O      0.191000000000     0.179150000000     0.485800000000     0          
T        Si     0.187500000000     0.169200000000     0.044200000000     0          
O        O      0.445850000000     0.066000000000     0.110800000000     0          
T        Si     0.455800000000     0.062500000000     0.169200000000     0          
O        O      0.059000000000     0.179150000000     0.014200000000     0          
T        Si     0.062500000000     0.169200000000     0.455800000000     0          
O        O      0.445850000000     0.434000000000     0.139200000000     0          
T        Si     0.455800000000     0.437500000000     0.080800000000     0          
O        O      0.191000000000     0.320850000000     0.264200000000     0          
T        Si     0.187500000000     0.330800000000     0.205800000000     0          
O        O      0.304150000000     0.066000000000     0.389200000000     0          
T        Si     0.294200000000     0.062500000000     0.330800000000     0          
O        O      0.235800000000     0.059000000000     0.320850000000     0          
O        O      0.485800000000     0.191000000000     0.179150000000     0          
T        Si     0.044200000000     0.187500000000     0.169200000000     0          
O        O      0.434000000000     0.360800000000     0.304150000000     0          
T        Si     0.437500000000     0.419200000000     0.294200000000     0          
O        O      0.264200000000     0.309000000000     0.429150000000     0          
T        Si     0.205800000000     0.312500000000     0.419200000000     0          
O        O      0.066000000000     0.389200000000     0.304150000000     0          
O        O      0.014200000000     0.441000000000     0.070850000000     0          
O        O      0.434000000000     0.139200000000     0.445850000000     0          
T        Si     0.437500000000     0.080800000000     0.455800000000     0          
O        O      0.316000000000     0.360800000000     0.195850000000     0          
T        Si     0.312500000000     0.419200000000     0.205800000000     0          
O        O      0.179150000000     0.264200000000     0.441000000000     0          
T        Si     0.169200000000     0.205800000000     0.437500000000     0          
O        O      0.110800000000     0.304150000000     0.316000000000     0          
T        Si     0.169200000000     0.294200000000     0.312500000000     0          
O        O      0.070850000000     0.235800000000     0.191000000000     0          
T        Si     0.080800000000     0.294200000000     0.187500000000     0          
O        O      0.139200000000     0.195850000000     0.066000000000     0          
T        Si     0.080800000000     0.205800000000     0.062500000000     0          
O        O      0.179150000000     0.235800000000     0.309000000000     0          
O        O      0.139200000000     0.304150000000     0.184000000000     0          
O        O      0.070850000000     0.264200000000     0.059000000000     0          
O        O      0.110800000000     0.195850000000     0.434000000000     0          
O        O      0.441000000000     0.179150000000     0.264200000000     0          
T        Si     0.437500000000     0.169200000000     0.205800000000     0          
O        O      0.195850000000     0.066000000000     0.139200000000     0          
T        Si     0.205800000000     0.062500000000     0.080800000000     0          
O        O      0.309000000000     0.320850000000     0.014200000000     0          
T        Si     0.312500000000     0.330800000000     0.455800000000     0          
O        O      0.054150000000     0.434000000000     0.389200000000     0          
T        Si     0.044200000000     0.437500000000     0.330800000000     0          
O        O      0.441000000000     0.320850000000     0.485800000000     0          
T        Si     0.437500000000     0.330800000000     0.044200000000     0          
O        O      0.054150000000     0.066000000000     0.360800000000     0          
T        Si     0.044200000000     0.062500000000     0.419200000000     0          
O        O      0.309000000000     0.179150000000     0.235800000000     0          
T        Si     0.312500000000     0.169200000000     0.294200000000     0          
O        O      0.195850000000     0.434000000000     0.110800000000     0          
T        Si     0.205800000000     0.437500000000     0.169200000000     0          
O        O      0.264200000000     0.441000000000     0.179150000000     0          
O        O      0.014200000000     0.309000000000     0.320850000000     0          
T        Si     0.455800000000     0.312500000000     0.330800000000     0          
O        O      0.066000000000     0.139200000000     0.195850000000     0          
T        Si     0.062500000000     0.080800000000     0.205800000000     0          
O        O      0.235800000000     0.191000000000     0.070850000000     0          
T        Si     0.294200000000     0.187500000000     0.080800000000     0          
O        O      0.434000000000     0.110800000000     0.195850000000     0          
O        O      0.485800000000     0.059000000000     0.429150000000     0          
O        O      0.066000000000     0.360800000000     0.054150000000     0          
T        Si     0.062500000000     0.419200000000     0.044200000000     0          
O        O      0.184000000000     0.139200000000     0.304150000000     0          
T        Si     0.187500000000     0.080800000000     0.294200000000     0          
O        O      0.070850000000     0.485800000000     0.309000000000     0          
T        Si     0.080800000000     0.044200000000     0.312500000000     0          
O        O      0.139200000000     0.445850000000     0.434000000000     0          
T        Si     0.080800000000     0.455800000000     0.437500000000     0          
O        O      0.179150000000     0.014200000000     0.059000000000     0          
T        Si     0.169200000000     0.455800000000     0.062500000000     0          
O        O      0.110800000000     0.054150000000     0.184000000000     0          
T        Si     0.169200000000     0.044200000000     0.187500000000     0          
O        O      0.070850000000     0.014200000000     0.441000000000     0          
O        O      0.110800000000     0.445850000000     0.066000000000     0          
O        O      0.179150000000     0.485800000000     0.191000000000     0          
O        O      0.139200000000     0.054150000000     0.316000000000     0          
O        O      0.309000000000     0.070850000000     0.485800000000     0          
T        Si     0.312500000000     0.080800000000     0.044200000000     0          
O        O      0.054150000000     0.184000000000     0.110800000000     0          
O        O      0.441000000000     0.429150000000     0.235800000000     0          
O        O      0.195850000000     0.316000000000     0.360800000000     0          
O        O      0.309000000000     0.429150000000     0.264200000000     0          
O        O      0.195850000000     0.184000000000     0.389200000000     0          
T        Si     0.205800000000     0.187500000000     0.330800000000     0          
O        O      0.441000000000     0.070850000000     0.014200000000     0          
O        O      0.054150000000     0.316000000000     0.139200000000     0          
T        Si     0.044200000000     0.312500000000     0.080800000000     0          
O        O      0.485800000000     0.309000000000     0.070850000000     0          
O        O      0.235800000000     0.441000000000     0.429150000000     0          
O        O      0.184000000000     0.110800000000     0.054150000000     0          
O        O      0.014200000000     0.059000000000     0.179150000000     0          
O        O      0.316000000000     0.139200000000     0.054150000000     0          
O        O      0.264200000000     0.191000000000     0.320850000000     0          
O        O      0.184000000000     0.389200000000     0.195850000000     0          
O        O      0.066000000000     0.110800000000     0.445850000000     0          
O        O      0.429150000000     0.014200000000     0.191000000000     0          
T        Si     0.419200000000     0.455800000000     0.187500000000     0          
O        O      0.360800000000     0.054150000000     0.066000000000     0          
T        Si     0.419200000000     0.044200000000     0.062500000000     0          
O        O      0.320850000000     0.485800000000     0.441000000000     0          
T        Si     0.330800000000     0.044200000000     0.437500000000     0          
O        O      0.389200000000     0.445850000000     0.316000000000     0          
T        Si     0.330800000000     0.455800000000     0.312500000000     0          
O        O      0.429150000000     0.485800000000     0.059000000000     0          
O        O      0.389200000000     0.054150000000     0.434000000000     0          
O        O      0.320850000000     0.014200000000     0.309000000000     0          
O        O      0.360800000000     0.445850000000     0.184000000000     0          
O        O      0.191000000000     0.429150000000     0.014200000000     0          
T        Si     0.187500000000     0.419200000000     0.455800000000     0          
O        O      0.445850000000     0.316000000000     0.389200000000     0          
O        O      0.059000000000     0.070850000000     0.264200000000     0          
O        O      0.304150000000     0.184000000000     0.139200000000     0          
O        O      0.191000000000     0.070850000000     0.235800000000     0          
O        O      0.304150000000     0.316000000000     0.110800000000     0          
T        Si     0.294200000000     0.312500000000     0.169200000000     0          
O        O      0.059000000000     0.429150000000     0.485800000000     0          
O        O      0.445850000000     0.184000000000     0.360800000000     0          
T        Si     0.455800000000     0.187500000000     0.419200000000     0          
O        O      0.014200000000     0.191000000000     0.429150000000     0          
O        O      0.264200000000     0.059000000000     0.070850000000     0          
O        O      0.316000000000     0.389200000000     0.445850000000     0          
O        O      0.485800000000     0.441000000000     0.320850000000     0          
O        O      0.184000000000     0.360800000000     0.445850000000     0          
O        O      0.235800000000     0.309000000000     0.179150000000     0          
O        O      0.316000000000     0.110800000000     0.304150000000     0          
O        O      0.434000000000     0.389200000000     0.054150000000     0          
O        O      0.320850000000     0.235800000000     0.559000000000     0          
T        Si     0.330800000000     0.294200000000     0.562500000000     0          
O        O      0.389200000000     0.195850000000     0.684000000000     0          
T        Si     0.330800000000     0.205800000000     0.687500000000     0          
O        O      0.429150000000     0.264200000000     0.809000000000     0          
T        Si     0.419200000000     0.205800000000     0.812500000000     0          
O        O      0.360800000000     0.304150000000     0.934000000000     0          
T        Si     0.419200000000     0.294200000000     0.937500000000     0          
O        O      0.320850000000     0.264200000000     0.691000000000     0          
O        O      0.360800000000     0.195850000000     0.816000000000     0          
O        O      0.429150000000     0.235800000000     0.941000000000     0          
O        O      0.389200000000     0.304150000000     0.566000000000     0          
O        O      0.059000000000     0.320850000000     0.735800000000     0          
T        Si     0.062500000000     0.330800000000     0.794200000000     0          
O        O      0.304150000000     0.434000000000     0.860800000000     0          
T        Si     0.294200000000     0.437500000000     0.919200000000     0          
O        O      0.191000000000     0.179150000000     0.985800000000     0          
T        Si     0.187500000000     0.169200000000     0.544200000000     0          
O        O      0.445850000000     0.066000000000     0.610800000000     0          
T        Si     0.455800000000     0.062500000000     0.669200000000     0          
O        O      0.059000000000     0.179150000000     0.514200000000     0          
T        Si     0.062500000000     0.169200000000     0.955800000000     0          
O        O      0.445850000000     0.434000000000     0.639200000000     0          
T        Si     0.455800000000     0.437500000000     0.580800000000     0          
O        O      0.191000000000     0.320850000000     0.764200000000     0          
T        Si     0.187500000000     0.330800000000     0.705800000000     0          
O        O      0.304150000000     0.066000000000     0.889200000000     0          
T        Si     0.294200000000     0.062500000000     0.830800000000     0          
O        O      0.235800000000     0.059000000000     0.820850000000     0          
O        O      0.485800000000     0.191000000000     0.679150000000     0          
T        Si     0.044200000000     0.187500000000     0.669200000000     0          
O        O      0.434000000000     0.360800000000     0.804150000000     0          
T        Si     0.437500000000     0.419200000000     0.794200000000     0          
O        O      0.264200000000     0.309000000000     0.929150000000     0          
T        Si     0.205800000000     0.312500000000     0.919200000000     0          
O        O      0.066000000000     0.389200000000     0.804150000000     0          
O        O      0.014200000000     0.441000000000     0.570850000000     0          
O        O      0.434000000000     0.139200000000     0.945850000000     0          
T        Si     0.437500000000     0.080800000000     0.955800000000     0          
O        O      0.316000000000     0.360800000000     0.695850000000     0          
T        Si     0.312500000000     0.419200000000     0.705800000000     0          
O        O      0.179150000000     0.264200000000     0.941000000000     0          
T        Si     0.169200000000     0.205800000000     0.937500000000     0          
O        O      0.110800000000     0.304150000000     0.816000000000     0          
T        Si     0.169200000000     0.294200000000     0.812500000000     0          
O        O      0.070850000000     0.235800000000     0.691000000000     0          
T        Si     0.080800000000     0.294200000000     0.687500000000     0          
O        O      0.139200000000     0.195850000000     0.566000000000     0          
T        Si     0.080800000000     0.205800000000     0.562500000000     0          
O        O      0.179150000000     0.235800000000     0.809000000000     0          
O        O      0.139200000000     0.304150000000     0.684000000000     0          
O        O      0.070850000000     0.264200000000     0.559000000000     0          
O        O      0.110800000000     0.195850000000     0.934000000000     0          
O        O      0.441000000000     0.179150000000     0.764200000000     0          
T        Si     0.437500000000     0.169200000000     0.705800000000     0          
O        O      0.195850000000     0.066000000000     0.639200000000     0          
T        Si     0.205800000000     0.062500000000     0.580800000000     0          
O        O      0.309000000000     0.320850000000     0.514200000000     0          
T        Si     0.312500000000     0.330800000000     0.955800000000     0          
O        O      0.054150000000     0.434000000000     0.889200000000     0          
T        Si     0.044200000000     0.437500000000     0.830800000000     0          
O        O      0.441000000000     0.320850000000     0.985800000000     0          
T        Si     0.437500000000     0.330800000000     0.544200000000     0          
O        O      0.054150000000     0.066000000000     0.860800000000     0          
T        Si     0.044200000000     0.062500000000     0.919200000000     0          
O        O      0.309000000000     0.179150000000     0.735800000000     0          
T        Si     0.312500000000     0.169200000000     0.794200000000     0          
O        O      0.195850000000     0.434000000000     0.610800000000     0          
T        Si     0.205800000000     0.437500000000     0.669200000000     0          
O        O      0.264200000000     0.441000000000     0.679150000000     0          
O        O      0.014200000000     0.309000000000     0.820850000000     0          
T        Si     0.455800000000     0.312500000000     0.830800000000     0          
O        O      0.066000000000     0.139200000000     0.695850000000     0          
T        Si     0.062500000000     0.080800000000     0.705800000000     0          
O        O      0.235800000000     0.191000000000     0.570850000000     0          
T        Si     0.294200000000     0.187500000000     0.580800000000     0          
O        O      0.434000000000     0.110800000000     0.695850000000     0          
O        O      0.485800000000     0.059000000000     0.929150000000     0          
O        O      0.066000000000     0.360800000000     0.554150000000     0          
T        Si     0.062500000000     0.419200000000     0.544200000000     0          
O        O      0.184000000000     0.139200000000     0.804150000000     0          
T        Si     0.187500000000     0.080800000000     0.794200000000     0          
O        O      0.070850000000     0.485800000000     0.809000000000     0          
T        Si     0.080800000000     0.044200000000     0.812500000000     0          
O        O      0.139200000000     0.445850000000     0.934000000000     0          
T        Si     0.080800000000     0.455800000000     0.937500000000     0          
O        O      0.179150000000     0.014200000000     0.559000000000     0          
T        Si     0.169200000000     0.455800000000     0.562500000000     0          
O        O      0.110800000000     0.054150000000     0.684000000000     0          
T        Si     0.169200000000     0.044200000000     0.687500000000     0          
O        O      0.070850000000     0.014200000000     0.941000000000     0          
O        O      0.110800000000     0.445850000000     0.566000000000     0          
O        O      0.179150000000     0.485800000000     0.691000000000     0          
O        O      0.139200000000     0.054150000000     0.816000000000     0          
O        O      0.309000000000     0.070850000000     0.985800000000     0          
T        Si     0.312500000000     0.080800000000     0.544200000000     0          
O        O      0.054150000000     0.184000000000     0.610800000000     0          
O        O      0.441000000000     0.429150000000     0.735800000000     0          
O        O      0.195850000000     0.316000000000     0.860800000000     0          
O        O      0.309000000000     0.429150000000     0.764200000000     0          
O        O      0.195850000000     0.184000000000     0.889200000000     0          
T        Si     0.205800000000     0.187500000000     0.830800000000     0          
O        O      0.441000000000     0.070850000000     0.514200000000     0          
O        O      0.054150000000     0.316000000000     0.639200000000     0          
T        Si     0.044200000000     0.312500000000     0.580800000000     0          
O        O      0.485800000000     0.309000000000     0.570850000000     0          
O        O      0.235800000000     0.441000000000     0.929150000000     0          
O        O      0.184000000000     0.110800000000     0.554150000000     0          
O        O      0.014200000000     0.059000000000     0.679150000000     0          
O        O      0.316000000000     0.139200000000     0.554150000000     0          
O        O      0.264200000000     0.191000000000     0.820850000000     0          
O        O      0.184000000000     0.389200000000     0.695850000000     0          
O        O      0.066000000000     0.110800000000     0.945850000000     0          
O        O      0.429150000000     0.014200000000     0.691000000000     0          
T        Si     0.419200000000     0.455800000000     0.687500000000     0          
O        O      0.360800000000     0.054150000000     0.566000000000     0          
T        Si     0.419200000000     0.044200000000     0.562500000000     0          
O        O      0.320850000000     0.485800000000     0.941000000000     0          
T        Si     0.330800000000     0.044200000000     0.937500000000     0          
O        O      0.389200000000     0.445850000000     0.816000000000     0          
T        Si     0.330800000000     0.455800000000     0.812500000000     0          
O        O      0.429150000000     0.485800000000     0.559000000000     0          
O        O      0.389200000000     0.054150000000     0.934000000000     0          
O        O      0.320850000000     0.014200000000     0.809000000000     0          
O        O      0.360800000000     0.445850000000     0.684000000000     0          
O        O      0.191000000000     0.429150000000     0.514200000000     0          
T        Si     0.187500000000     0.419200000000     0.955800000000     0          
O        O      0.445850000000     0.316000000000     0.889200000000     0          
O        O      0.059000000000     0.070850000000     0.764200000000     0          
O        O      0.304150000000     0.184000000000     0.639200000000     0          
O        O      0.191000000000     0.070850000000     0.735800000000     0          
O        O      0.304150000000     0.316000000000     0.610800000000     0          
T        Si     0.294200000000     0.312500000000     0.669200000000     0          
O        O      0.059000000000     0.429150000000     0.985800000000     0          
O        O      0.445850000000     0.184000000000     0.860800000000     0          
T        Si     0.455800000000     0.187500000000     0.919200000000     0          
O        O      0.014200000000     0.191000000000     0.929150000000     0          
O        O      0.264200000000     0.059000000000     0.570850000000     0          
O        O      0.316000000000     0.389200000000     0.945850000000     0          
O        O      0.485800000000     0.441000000000     0.820850000000     0          
O        O      0.184000000000     0.360800000000     0.945850000000     0          
O        O      0.235800000000     0.309000000000     0.679150000000     0          
O        O      0.316000000000     0.110800000000     0.804150000000     0          
O        O      0.434000000000     0.389200000000     0.554150000000     0          
O        O      0.320850000000     0.735800000000     0.059000000000     0          
T        Si     0.330800000000     0.794200000000     0.062500000000     0          
O        O      0.389200000000     0.695850000000     0.184000000000     0          
T        Si     0.330800000000     0.705800000000     0.187500000000     0          
O        O      0.429150000000     0.764200000000     0.309000000000     0          
T        Si     0.419200000000     0.705800000000     0.312500000000     0          
O        O      0.360800000000     0.804150000000     0.434000000000     0          
T        Si     0.419200000000     0.794200000000     0.437500000000     0          
O        O      0.320850000000     0.764200000000     0.191000000000     0          
O        O      0.360800000000     0.695850000000     0.316000000000     0          
O        O      0.429150000000     0.735800000000     0.441000000000     0          
O        O      0.389200000000     0.804150000000     0.066000000000     0          
O        O      0.059000000000     0.820850000000     0.235800000000     0          
T        Si     0.062500000000     0.830800000000     0.294200000000     0          
O        O      0.304150000000     0.934000000000     0.360800000000     0          
T        Si     0.294200000000     0.937500000000     0.419200000000     0          
O        O      0.191000000000     0.679150000000     0.485800000000     0          
T        Si     0.187500000000     0.669200000000     0.044200000000     0          
O        O      0.445850000000     0.566000000000     0.110800000000     0          
T        Si     0.455800000000     0.562500000000     0.169200000000     0          
O        O      0.059000000000     0.679150000000     0.014200000000     0          
T        Si     0.062500000000     0.669200000000     0.455800000000     0          
O        O      0.445850000000     0.934000000000     0.139200000000     0          
T        Si     0.455800000000     0.937500000000     0.080800000000     0          
O        O      0.191000000000     0.820850000000     0.264200000000     0          
T        Si     0.187500000000     0.830800000000     0.205800000000     0          
O        O      0.304150000000     0.566000000000     0.389200000000     0          
T        Si     0.294200000000     0.562500000000     0.330800000000     0          
O        O      0.235800000000     0.559000000000     0.320850000000     0          
O        O      0.485800000000     0.691000000000     0.179150000000     0          
T        Si     0.044200000000     0.687500000000     0.169200000000     0          
O        O      0.434000000000     0.860800000000     0.304150000000     0          
T        Si     0.437500000000     0.919200000000     0.294200000000     0          
O        O      0.264200000000     0.809000000000     0.429150000000     0          
T        Si     0.205800000000     0.812500000000     0.419200000000     0          
O        O      0.066000000000     0.889200000000     0.304150000000     0          
O        O      0.014200000000     0.941000000000     0.070850000000     0          
O        O      0.434000000000     0.639200000000     0.445850000000     0          
T        Si     0.437500000000     0.580800000000     0.455800000000     0          
O        O      0.316000000000     0.860800000000     0.195850000000     0          
T        Si     0.312500000000     0.919200000000     0.205800000000     0          
O        O      0.179150000000     0.764200000000     0.441000000000     0          
T        Si     0.169200000000     0.705800000000     0.437500000000     0          
O        O      0.110800000000     0.804150000000     0.316000000000     0          
T        Si     0.169200000000     0.794200000000     0.312500000000     0          
O        O      0.070850000000     0.735800000000     0.191000000000     0          
T        Si     0.080800000000     0.794200000000     0.187500000000     0          
O        O      0.139200000000     0.695850000000     0.066000000000     0          
T        Si     0.080800000000     0.705800000000     0.062500000000     0          
O        O      0.179150000000     0.735800000000     0.309000000000     0          
O        O      0.139200000000     0.804150000000     0.184000000000     0          
O        O      0.070850000000     0.764200000000     0.059000000000     0          
O        O      0.110800000000     0.695850000000     0.434000000000     0          
O        O      0.441000000000     0.679150000000     0.264200000000     0          
T        Si     0.437500000000     0.669200000000     0.205800000000     0          
O        O      0.195850000000     0.566000000000     0.139200000000     0          
T        Si     0.205800000000     0.562500000000     0.080800000000     0          
O        O      0.309000000000     0.820850000000     0.014200000000     0          
T        Si     0.312500000000     0.830800000000     0.455800000000     0          
O        O      0.054150000000     0.934000000000     0.389200000000     0          
T        Si     0.044200000000     0.937500000000     0.330800000000     0          
O        O      0.441000000000     0.820850000000     0.485800000000     0          
T        Si     0.437500000000     0.830800000000     0.044200000000     0          
O        O      0.054150000000     0.566000000000     0.360800000000     0          
T        Si     0.044200000000     0.562500000000     0.419200000000     0          
O        O      0.309000000000     0.679150000000     0.235800000000     0          
T        Si     0.312500000000     0.669200000000     0.294200000000     0          
O        O      0.195850000000     0.934000000000     0.110800000000     0          
T        Si     0.205800000000     0.937500000000     0.169200000000     0          
O        O      0.264200000000     0.941000000000     0.179150000000     0          
O        O      0.014200000000     0.809000000000     0.320850000000     0          
T        Si     0.455800000000     0.812500000000     0.330800000000     0          
O        O      0.066000000000     0.639200000000     0.195850000000     0          
T        Si     0.062500000000     0.580800000000     0.205800000000     0          
O        O      0.235800000000     0.691000000000     0.070850000000     0          
T        Si     0.294200000000     0.687500000000     0.080800000000     0          
O        O      0.434000000000     0.610800000000     0.195850000000     0          
O        O      0.485800000000     0.559000000000     0.429150000000     0          
O        O      0.066000000000     0.860800000000     0.054150000000     0          
T        Si     0.062500000000     0.919200000000     0.044200000000     0          
O        O      0.184000000000     0.639200000000     0.304150000000     0          
T        Si     0.187500000000     0.580800000000     0.294200000000     0          
O        O      0.070850000000     0.985800000000     0.309000000000     0          
T        Si     0.080800000000     0.544200000000     0.312500000000     0          
O        O      0.139200000000     0.945850000000     0.434000000000     0          
T        Si     0.080800000000     0.955800000000     0.437500000000     0          
O        O      0.179150000000     0.514200000000     0.059000000000     0          
T        Si     0.169200000000     0.955800000000     0.062500000000     0          
O        O      0.110800000000     0.554150000000     0.184000000000     0          
T        Si     0.169200000000     0.544200000000     0.187500000000     0          
O        O      0.070850000000     0.514200000000     0.441000000000     0          
O        O      0.110800000000     0.945850000000     0.066000000000     0          
O        O      0.179150000000     0.985800000000     0.191000000000     0          
O        O      0.139200000000     0.554150000000     0.316000000000     0          
O        O      0.309000000000     0.570850000000     0.485800000000     0          
T        Si     0.312500000000     0.580800000000     0.044200000000     0          
O        O      0.054150000000     0.684000000000     0.110800000000     0          
O        O      0.441000000000     0.929150000000     0.235800000000     0          
O        O      0.195850000000     0.816000000000     0.360800000000     0          
O        O      0.309000000000     0.929150000000     0.264200000000     0          
O        O      0.195850000000     0.684000000000     0.389200000000     0          
T        Si     0.205800000000     0.687500000000     0.330800000000     0          
O        O      0.441000000000     0.570850000000     0.014200000000     0          
O        O      0.054150000000     0.816000000000     0.139200000000     0          
T        Si     0.044200000000     0.812500000000     0.080800000000     0          
O        O      0.485800000000     0.809000000000     0.070850000000     0          
O        O      0.235800000000     0.941000000000     0.429150000000     0          
O        O      0.184000000000     0.610800000000     0.054150000000     0          
O        O      0.014200000000     0.559000000000     0.179150000000     0          
O        O      0.316000000000     0.639200000000     0.054150000000     0          
O        O      0.264200000000     0.691000000000     0.320850000000     0          
O        O      0.184000000000     0.889200000000     0.195850000000     0          
O        O      0.066000000000     0.610800000000     0.445850000000     0          
O        O      0.429150000000     0.514200000000     0.191000000000     0          
T        Si     0.419200000000     0.955800000000     0.187500000000     0          
O        O      0.360800000000     0.554150000000     0.066000000000     0          
T        Si     0.419200000000     0.544200000000     0.062500000000     0          
O        O      0.320850000000     0.985800000000     0.441000000000     0          
T        Si     0.330800000000     0.544200000000     0.437500000000     0          
O        O      0.389200000000     0.945850000000     0.316000000000     0          
T        Si     0.330800000000     0.955800000000     0.312500000000     0          
O        O      0.429150000000     0.985800000000     0.059000000000     0          
O        O      0.389200000000     0.554150000000     0.434000000000     0          
O        O      0.320850000000     0.514200000000     0.309000000000     0          
O        O      0.360800000000     0.945850000000     0.184000000000     0          
O        O      0.191000000000     0.929150000000     0.014200000000     0          
T        Si     0.187500000000     0.919200000000     0.455800000000     0          
O        O      0.445850000000     0.816000000000     0.389200000000     0          
O        O      0.059000000000     0.570850000000     0.264200000000     0          
O        O      0.304150000000     0.684000000000     0.139200000000     0          
O        O      0.191000000000     0.570850000000     0.235800000000     0          
O        O      0.304150000000     0.816000000000     0.110800000000     0          
T        Si     0.294200000000     0.812500000000     0.169200000000     0          
O        O      0.059000000000     0.929150000000     0.485800000000     0          
O        O      0.445850000000     0.684000000000     0.360800000000     0          
T        Si     0.455800000000     0.687500000000     0.419200000000     0          
O        O      0.014200000000     0.691000000000     0.429150000000     0          
O        O      0.264200000000     0.559000000000     0.070850000000     0          
O        O      0.316000000000     0.889200000000     0.445850000000     0          
O        O      0.485800000000     0.941000000000     0.320850000000     0          
O        O      0.184000000000     0.860800000000     0.445850000000     0          
O        O      0.235800000000     0.809000000000     0.179150000000     0          
O        O      0.316000000000     0.610800000000     0.304150000000     0          
O        O      0.434000000000     0.889200000000     0.054150000000     0          
O        O      0.320850000000     0.735800000000     0.559000000000     0          
T        Si     0.330800000000     0.794200000000     0.562500000000     0          
O        O      0.389200000000     0.695850000000     0.684000000000     0          
T        Si     0.330800000000     0.705800000000     0.687500000000     0          
O        O      0.429150000000     0.764200000000     0.809000000000     0          
T        Si     0.419200000000     0.705800000000     0.812500000000     0          
O        O      0.360800000000     0.804150000000     0.934000000000     0          
T        Si     0.419200000000     0.794200000000     0.937500000000     0          
O        O      0.320850000000     0.764200000000     0.691000000000     0          
O        O      0.360800000000     0.695850000000     0.816000000000     0          
O        O      0.429150000000     0.735800000000     0.941000000000     0          
O        O      0.389200000000     0.804150000000     0.566000000000     0          
O        O      0.059000000000     0.820850000000     0.735800000000     0          
T        Si     0.062500000000     0.830800000000     0.794200000000     0          
O        O      0.304150000000     0.934000000000     0.860800000000     0          
T        Si     0.294200000000     0.937500000000     0.919200000000     0          
O        O      0.191000000000     0.679150000000     0.985800000000     0          
T        Si     0.187500000000     0.669200000000     0.544200000000     0          
O        O      0.445850000000     0.566000000000     0.610800000000     0          
T        Si     0.455800000000     0.562500000000     0.669200000000     0          
O        O      0.059000000000     0.679150000000     0.514200000000     0          
T        Si     0.062500000000     0.669200000000     0.955800000000     0          
O        O      0.445850000000     0.934000000000     0.639200000000     0          
T        Si     0.455800000000     0.937500000000     0.580800000000     0          
O        O      0.191000000000     0.820850000000     0.764200000000     0          
T        Si     0.187500000000     0.830800000000     0.705800000000     0          
O        O      0.304150000000     0.566000000000     0.889200000000     0          
T        Si     0.294200000000     0.562500000000     0.830800000000     0          
O        O      0.235800000000     0.559000000000     0.820850000000     0          
O        O      0.485800000000     0.691000000000     0.679150000000     0          
T        Si     0.044200000000     0.687500000000     0.669200000000     0          
O        O      0.434000000000     0.860800000000     0.804150000000     0          
T        Si     0.437500000000     0.919200000000     0.794200000000     0          
O        O      0.264200000000     0.809000000000     0.929150000000     0          
T        Si     0.205800000000     0.812500000000     0.919200000000     0          
O        O      0.066000000000     0.889200000000     0.804150000000     0          
O        O      0.014200000000     0.941000000000     0.570850000000     0          
O        O      0.434000000000     0.639200000000     0.945850000000     0          
T        Si     0.437500000000     0.580800000000     0.955800000000     0          
O        O      0.316000000000     0.860800000000     0.695850000000     0          
T        Si     0.312500000000     0.919200000000     0.705800000000     0          
O        O      0.179150000000     0.764200000000     0.941000000000     0          
T        Si     0.169200000000     0.705800000000     0.937500000000     0          
O        O      0.110800000000     0.804150000000     0.816000000000     0          
T        Si     0.169200000000     0.794200000000     0.812500000000     0          
O        O      0.070850000000     0.735800000000     0.691000000000     0          
T        Si     0.080800000000     0.794200000000     0.687500000000     0          
O        O      0.139200000000     0.695850000000     0.566000000000     0          
T        Si     0.080800000000     0.705800000000     0.562500000000     0          
O        O      0.179150000000     0.735800000000     0.809000000000     0          
O        O      0.139200000000     0.804150000000     0.684000000000     0          
O        O      0.070850000000     0.764200000000     0.559000000000     0          
O        O      0.110800000000     0.695850000000     0.934000000000     0          
O        O      0.441000000000     0.679150000000     0.764200000000     0          
T        Si     0.437500000000     0.669200000000     0.705800000000     0          
O        O      0.195850000000     0.566000000000     0.639200000000     0          
T        Si     0.205800000000     0.562500000000     0.580800000000     0          
O        O      0.309000000000     0.820850000000     0.514200000000     0          
T        Si     0.312500000000     0.830800000000     0.955800000000     0          
O        O      0.054150000000     0.934000000000     0.889200000000     0          
T        Si     0.044200000000     0.937500000000     0.830800000000     0          
O        O      0.441000000000     0.820850000000     0.985800000000     0          
T        Si     0.437500000000     0.830800000000     0.544200000000     0          
O        O      0.054150000000     0.566000000000     0.860800000000     0          
T        Si     0.044200000000     0.562500000000     0.919200000000     0          
O        O      0.309000000000     0.679150000000     0.735800000000     0          
T        Si     0.312500000000     0.669200000000     0.794200000000     0          
O        O      0.195850000000     0.934000000000     0.610800000000     0          
T        Si     0.205800000000     0.937500000000     0.669200000000     0          
O        O      0.264200000000     0.941000000000     0.679150000000     0          
O        O      0.014200000000     0.809000000000     0.820850000000     0          
T        Si     0.455800000000     0.812500000000     0.830800000000     0          
O        O      0.066000000000     0.639200000000     0.695850000000     0          
T        Si     0.062500000000     0.580800000000     0.705800000000     0          
O        O      0.235800000000     0.691000000000     0.570850000000     0          
T        Si     0.294200000000     0.687500000000     0.580800000000     0          
O        O      0.434000000000     0.610800000000     0.695850000000     0          
O        O      0.485800000000     0.559000000000     0.929150000000     0          
O        O      0.066000000000     0.860800000000     0.554150000000     0          
T        Si     0.062500000000     0.919200000000     0.544200000000     0          
O        O      0.184000000000     0.639200000000     0.804150000000     0          
T        Si     0.187500000000     0.580800000000     0.794200000000     0          
O        O      0.070850000000     0.985800000000     0.809000000000     0          
T        Si     0.080800000000     0.544200000000     0.812500000000     0          
O        O      0.139200000000     0.945850000000     0.934000000000     0          
T        Si     0.080800000000     0.955800000000     0.937500000000     0          
O        O      0.179150000000     0.514200000000     0.559000000000     0          
T        Si     0.169200000000     0.955800000000     0.562500000000     0          
O        O      0.110800000000     0.554150000000     0.684000000000     0          
T        Si     0.169200000000     0.544200000000     0.687500000000     0          
O        O      0.070850000000     0.514200000000     0.941000000000     0          
O        O      0.110800000000     0.945850000000     0.566000000000     0          
O        O      0.179150000000     0.985800000000     0.691000000000     0          
O        O      0.139200000000     0.554150000000     0.816000000000     0          
O        O      0.309000000000     0.570850000000     0.985800000000     0          
T        Si     0.312500000000     0.580800000000     0.544200000000     0          
O        O      0.054150000000     0.684000000000     0.610800000000     0          
O        O      0.441000000000     0.929150000000     0.735800000000     0          
O        O      0.195850000000     0.816000000000     0.860800000000     0          
O        O      0.309000000000     0.929150000000     0.764200000000     0          
O        O      0.195850000000     0.684000000000     0.889200000000     0          
T        Si     0.205800000000     0.687500000000     0.830800000000     0          
O        O      0.441000000000     0.570850000000     0.514200000000     0          
O        O      0.054150000000     0.816000000000     0.639200000000     0          
T        Si     0.044200000000     0.812500000000     0.580800000000     0          
O        O      0.485800000000     0.809000000000     0.570850000000     0          
O        O      0.235800000000     0.941000000000     0.929150000000     0          
O        O      0.184000000000     0.610800000000     0.554150000000     0          
O        O      0.014200000000     0.559000000000     0.679150000000     0          
O        O      0.316000000000     0.639200000000     0.554150000000     0          
O        O      0.264200000000     0.691000000000     0.820850000000     0          
O        O      0.184000000000     0.889200000000     0.695850000000     0          
O        O      0.066000000000     0.610800000000     0.945850000000     0          
O        O      0.429150000000     0.514200000000     0.691000000000     0          
T        Si     0.419200000000     0.955800000000     0.687500000000     0          
O        O      0.360800000000     0.554150000000     0.566000000000     0          
T        Si     0.419200000000     0.544200000000     0.562500000000     0          
O        O      0.320850000000     0.985800000000     0.941000000000     0          
T        Si     0.330800000000     0.544200000000     0.937500000000     0          
O        O      0.389200000000     0.945850000000     0.816000000000     0          
T        Si     0.330800000000     0.955800000000     0.812500000000     0          
O        O      0.429150000000     0.985800000000     0.559000000000     0          
O        O      0.389200000000     0.554150000000     0.934000000000     0          
O        O      0.320850000000     0.514200000000     0.809000000000     0          
O        O      0.360800000000     0.945850000000     0.684000000000     0          
O        O      0.191000000000     0.929150000000     0.514200000000     0          
T        Si     0.187500000000     0.919200000000     0.955800000000     0          
O        O      0.445850000000     0.816000000000     0.889200000000     0          
O        O      0.059000000000     0.570850000000     0.764200000000     0          
O        O      0.304150000000     0.684000000000     0.639200000000     0          
O        O      0.191000000000     0.570850000000     0.735800000000     0          
O        O      0.304150000000     0.816000000000     0.610800000000     0          
T        Si     0.294200000000     0.812500000000     0.669200000000     0          
O        O      0.059000000000     0.929150000000     0.985800000000     0          
O        O      0.445850000000     0.684000000000     0.860800000000     0          
T        Si     0.455800000000     0.687500000000     0.919200000000     0          
O        O      0.014200000000     0.691000000000     0.929150000000     0          
O        O      0.264200000000     0.559000000000     0.570850000000     0          
O        O      0.316000000000     0.889200000000     0.945850000000     0          
O        O      0.485800000000     0.941000000000     0.820850000000     0          
O        O      0.184000000000     0.860800000000     0.945850000000     0          
O        O      0.235800000000     0.809000000000     0.679150000000     0          
O        O      0.316000000000     0.610800000000     0.804150000000     0          
O        O      0.434000000000     0.889200000000     0.554150000000     0          
O        O      0.820850000000     0.235800000000     0.059000000000     0          
T        Si     0.830800000000     0.294200000000     0.062500000000     0          
O        O      0.889200000000     0.195850000000     0.184000000000     0          
T        Si     0.830800000000     0.205800000000     0.187500000000     0          
O        O      0.929150000000     0.264200000000     0.309000000000     0          
T        Si     0.919200000000     0.205800000000     0.312500000000     0          
O        O      0.860800000000     0.304150000000     0.434000000000     0          
T        Si     0.919200000000     0.294200000000     0.437500000000     0          
O        O      0.820850000000     0.264200000000     0.191000000000     0          
O        O      0.860800000000     0.195850000000     0.316000000000     0          
O        O      0.929150000000     0.235800000000     0.441000000000     0          
O        O      0.889200000000     0.304150000000     0.066000000000     0          
O        O      0.559000000000     0.320850000000     0.235800000000     0          
T        Si     0.562500000000     0.330800000000     0.294200000000     0          
O        O      0.804150000000     0.434000000000     0.360800000000     0          
T        Si     0.794200000000     0.437500000000     0.419200000000     0          
O        O      0.691000000000     0.179150000000     0.485800000000     0          
T        Si     0.687500000000     0.169200000000     0.044200000000     0          
O        O      0.945850000000     0.066000000000     0.110800000000     0          
T        Si     0.955800000000     0.062500000000     0.169200000000     0          
O        O      0.559000000000     0.179150000000     0.014200000000     0          
T        Si     0.562500000000     0.169200000000     0.455800000000     0          
O        O      0.945850000000     0.434000000000     0.139200000000     0          
T        Si     0.955800000000     0.437500000000     0.080800000000     0          
O        O      0.691000000000     0.320850000000     0.264200000000     0          
T        Si     0.687500000000     0.330800000000     0.205800000000     0          
O        O      0.804150000000     0.066000000000     0.389200000000     0          
T        Si     0.794200000000     0.062500000000     0.330800000000     0          
O        O      0.735800000000     0.059000000000     0.320850000000     0          
O        O      0.985800000000     0.191000000000     0.179150000000     0          
T        Si     0.544200000000     0.187500000000     0.169200000000     0          
O        O      0.934000000000     0.360800000000     0.304150000000     0          
T        Si     0.937500000000     0.419200000000     0.294200000000     0          
O        O      0.764200000000     0.309000000000     0.429150000000     0          
T        Si     0.705800000000     0.312500000000     0.419200000000     0          
O        O      0.566000000000     0.389200000000     0.304150000000     0          
O        O      0.514200000000     0.441000000000     0.070850000000     0          
O        O      0.934000000000     0.139200000000     0.445850000000     0          
T        Si     0.937500000000     0.080800000000     0.455800000000     0          
O        O      0.816000000000     0.360800000000     0.195850000000     0          
T        Si     0.812500000000     0.419200000000     0.205800000000     0          
O        O      0.679150000000     0.264200000000     0.441000000000     0          
T        Si     0.669200000000     0.205800000000     0.437500000000     0          
O        O      0.610800000000     0.304150000000     0.316000000000     0          
T        Si     0.669200000000     0.294200000000     0.312500000000     0          
O        O      0.570850000000     0.235800000000     0.191000000000     0          
T        Si     0.580800000000     0.294200000000     0.187500000000     0          
O        O      0.639200000000     0.195850000000     0.066000000000     0          
T        Si     0.580800000000     0.205800000000     0.062500000000     0          
O        O      0.679150000000     0.235800000000     0.309000000000     0          
O        O      0.639200000000     0.304150000000     0.184000000000     0          
O        O      0.570850000000     0.264200000000     0.059000000000     0          
O        O      0.610800000000     0.195850000000     0.434000000000     0          
O        O      0.941000000000     0.179150000000     0.264200000000     0          
T        Si     0.937500000000     0.169200000000     0.205800000000     0          
O        O      0.695850000000     0.066000000000     0.139200000000     0          
T        Si     0.705800000000     0.062500000000     0.080800000000     0          
O        O      0.809000000000     0.320850000000     0.014200000000     0          
T        Si     0.812500000000     0.330800000000     0.455800000000     0          
O        O      0.554150000000     0.434000000000     0.389200000000     0          
T        Si     0.544200000000     0.437500000000     0.330800000000     0          
O        O      0.941000000000     0.320850000000     0.485800000000     0          
T        Si     0.937500000000     0.330800000000     0.044200000000     0          
O        O      0.554150000000     0.066000000000     0.360800000000     0          
T        Si     0.544200000000     0.062500000000     0.419200000000     0          
O        O      0.809000000000     0.179150000000     0.235800000000     0          
T        Si     0.812500000000     0.169200000000     0.294200000000     0          
O        O      0.695850000000     0.434000000000     0.110800000000     0          
T        Si     0.705800000000     0.437500000000     0.169200000000     0          
O        O      0.764200000000     0.441000000000     0.179150000000     0          
O        O      0.514200000000     0.309000000000     0.320850000000     0          
T        Si     0.955800000000     0.312500000000     0.330800000000     0          
O        O      0.566000000000     0.139200000000     0.195850000000     0          
T        Si     0.562500000000     0.080800000000     0.205800000000     0          
O        O      0.735800000000     0.191000000000     0.070850000000     0          
T        Si     0.794200000000     0.187500000000     0.080800000000     0          
O        O      0.934000000000     0.110800000000     0.195850000000     0          
O        O      0.985800000000     0.059000000000     0.429150000000     0          
O        O      0.566000000000     0.360800000000     0.054150000000     0          
T        Si     0.562500000000     0.419200000000     0.044200000000     0          
O        O      0.684000000000     0.139200000000     0.304150000000     0          
T        Si     0.687500000000     0.080800000000     0.294200000000     0          
O        O      0.570850000000     0.485800000000     0.309000000000     0          
T        Si     0.580800000000     0.044200000000     0.312500000000     0          
O        O      0.639200000000     0.445850000000     0.434000000000     0          
T        Si     0.580800000000     0.455800000000     0.437500000000     0          
O        O      0.679150000000     0.014200000000     0.059000000000     0          
T        Si     0.669200000000     0.455800000000     0.062500000000     0          
O        O      0.610800000000     0.054150000000     0.184000000000     0          
T        Si     0.669200000000     0.044200000000     0.187500000000     0          
O        O      0.570850000000     0.014200000000     0.441000000000     0          
O        O      0.610800000000     0.445850000000     0.066000000000     0          
O        O      0.679150000000     0.485800000000     0.191000000000     0          
O        O      0.639200000000     0.054150000000     0.316000000000     0          
O        O      0.809000000000     0.070850000000     0.485800000000     0          
T        Si     0.812500000000     0.080800000000     0.044200000000     0          
O        O      0.554150000000     0.184000000000     0.110800000000     0          
O        O      0.941000000000     0.429150000000     0.235800000000     0          
O        O      0.695850000000     0.316000000000     0.360800000000     0          
O        O      0.809000000000     0.429150000000     0.264200000000     0          
O        O      0.695850000000     0.184000000000     0.389200000000     0          
T        Si     0.705800000000     0.187500000000     0.330800000000     0          
O        O      0.941000000000     0.070850000000     0.014200000000     0          
O        O      0.554150000000     0.316000000000     0.139200000000     0          
T        Si     0.544200000000     0.312500000000     0.080800000000     0          
O        O      0.985800000000     0.309000000000     0.070850000000     0          
O        O      0.735800000000     0.441000000000     0.429150000000     0          
O        O      0.684000000000     0.110800000000     0.054150000000     0          
O        O      0.514200000000     0.059000000000     0.179150000000     0          
O        O      0.816000000000     0.139200000000     0.054150000000     0          
O        O      0.764200000000     0.191000000000     0.320850000000     0          
O        O      0.684000000000     0.389200000000     0.195850000000     0          
O        O      0.566000000000     0.110800000000     0.445850000000     0          
O        O      0.929150000000     0.014200000000     0.191000000000     0          
T        Si     0.919200000000     0.455800000000     0.187500000000     0          
O        O      0.860800000000     0.054150000000     0.066000000000     0          
T        Si     0.919200000000     0.044200000000     0.062500000000     0          
O        O      0.820850000000     0.485800000000     0.441000000000     0          
T        Si     0.830800000000     0.044200000000     0.437500000000     0          
O        O      0.889200000000     0.445850000000     0.316000000000     0          
T        Si     0.830800000000     0.455800000000     0.312500000000     0          
O        O      0.929150000000     0.485800000000     0.059000000000     0          
O        O      0.889200000000     0.054150000000     0.434000000000     0          
O        O      0.820850000000     0.014200000000     0.309000000000     0          
O        O      0.860800000000     0.445850000000     0.184000000000     0          
O        O      0.691000000000     0.429150000000     0.014200000000     0          
T        Si     0.687500000000     0.419200000000     0.455800000000     0          
O        O      0.945850000000     0.316000000000     0.389200000000     0          
O        O      0.559000000000     0.070850000000     0.264200000000     0          
O        O      0.804150000000     0.184000000000     0.139200000000     0          
O        O      0.691000000000     0.070850000000     0.235800000000     0          
O        O      0.804150000000     0.316000000000     0.110800000000     0          
T        Si     0.794200000000     0.312500000000     0.169200000000     0          
O        O      0.559000000000     0.429150000000     0.485800000000     0          
O        O      0.945850000000     0.184000000000     0.360800000000     0          
T        Si     0.955800000000     0.187500000000     0.419200000000     0          
O        O      0.514200000000     0.191000000000     0.429150000000     0          
O        O      0.764200000000     0.059000000000     0.070850000000     0          
O        O      0.816000000000     0.389200000000     0.445850000000     0          
O        O      0.985800000000     0.441000000000     0.320850000000     0          
O        O      0.684000000000     0.360800000000     0.445850000000     0          
O        O      0.735800000000     0.309000000000     0.179150000000     0          
O        O      0.816000000000     0.110800000000     0.304150000000     0          
O        O      0.934000000000     0.389200000000     0.054150000000     0          
O        O      0.820850000000     0.235800000000     0.559000000000     0          
T        Si     0.830800000000     0.294200000000     0.562500000000     0          
O        O      0.889200000000     0.195850000000     0.684000000000     0          
T        Si     0.830800000000     0.205800000000     0.687500000000     0          
O        O      0.929150000000     0.264200000000     0.809000000000     0          
T        Si     0.919200000000     0.205800000000     0.812500000000     0          
O        O      0.860800000000     0.304150000000     0.934000000000     0          
T        Si     0.919200000000     0.294200000000     0.937500000000     0          
O        O      0.820850000000     0.264200000000     0.691000000000     0          
O        O      0.860800000000     0.195850000000     0.816000000000     0          
O        O      0.929150000000     0.235800000000     0.941000000000     0          
O        O      0.889200000000     0.304150000000     0.566000000000     0          
O        O      0.559000000000     0.320850000000     0.735800000000     0          
T        Si     0.562500000000     0.330800000000     0.794200000000     0          
O        O      0.804150000000     0.434000000000     0.860800000000     0          
T        Si     0.794200000000     0.437500000000     0.919200000000     0          
O        O      0.691000000000     0.179150000000     0.985800000000     0          
T        Si     0.687500000000     0.169200000000     0.544200000000     0          
O        O      0.945850000000     0.066000000000     0.610800000000     0          
T        Si     0.955800000000     0.062500000000     0.669200000000     0          
O        O      0.559000000000     0.179150000000     0.514200000000     0          
T        Si     0.562500000000     0.169200000000     0.955800000000     0          
O        O      0.945850000000     0.434000000000     0.639200000000     0          
T        Si     0.955800000000     0.437500000000     0.580800000000     0          
O        O      0.691000000000     0.320850000000     0.764200000000     0          
T        Si     0.687500000000     0.330800000000     0.705800000000     0          
O        O      0.804150000000     0.066000000000     0.889200000000     0          
T        Si     0.794200000000     0.062500000000     0.830800000000     0          
O        O      0.735800000000     0.059000000000     0.820850000000     0          
O        O      0.985800000000     0.191000000000     0.679150000000     0          
T        Si     0.544200000000     0.187500000000     0.669200000000     0          
O        O      0.934000000000     0.360800000000     0.804150000000     0          
T        Si     0.937500000000     0.419200000000     0.794200000000     0          
O        O      0.764200000000     0.309000000000     0.929150000000     0          
T        Si     0.705800000000     0.312500000000     0.919200000000     0          
O        O      0.566000000000     0.389200000000     0.804150000000     0          
O        O      0.514200000000     0.441000000000     0.570850000000     0          
O        O      0.934000000000     0.139200000000     0.945850000000     0          
T        Si     0.937500000000     0.080800000000     0.955800000000     0          
O        O      0.816000000000     0.360800000000     0.695850000000     0          
T        Si     0.812500000000     0.419200000000     0.705800000000     0          
O        O      0.679150000000     0.264200000000     0.941000000000     0          
T        Si     0.669200000000     0.205800000000     0.937500000000     0          
O        O      0.610800000000     0.304150000000     0.816000000000     0          
T        Si     0.669200000000     0.294200000000     0.812500000000     0          
O        O      0.570850000000     0.235800000000     0.691000000000     0          
T        Si     0.580800000000     0.294200000000     0.687500000000     0          
O        O      0.639200000000     0.195850000000     0.566000000000     0          
T        Si     0.580800000000     0.205800000000     0.562500000000     0          
O        O      0.679150000000     0.235800000000     0.809000000000     0          
O        O      0.639200000000     0.304150000000     0.684000000000     0          
O        O      0.570850000000     0.264200000000     0.559000000000     0          
O        O      0.610800000000     0.195850000000     0.934000000000     0          
O        O      0.941000000000     0.179150000000     0.764200000000     0          
T        Si     0.937500000000     0.169200000000     0.705800000000     0          
O        O      0.695850000000     0.066000000000     0.639200000000     0          
T        Si     0.705800000000     0.062500000000     0.580800000000     0          
O        O      0.809000000000     0.320850000000     0.514200000000     0          
T        Si     0.812500000000     0.330800000000     0.955800000000     0          
O        O      0.554150000000     0.434000000000     0.889200000000     0          
T        Si     0.544200000000     0.437500000000     0.830800000000     0          
O        O      0.941000000000     0.320850000000     0.985800000000     0          
T        Si     0.937500000000     0.330800000000     0.544200000000     0          
O        O      0.554150000000     0.066000000000     0.860800000000     0          
T        Si     0.544200000000     0.062500000000     0.919200000000     0          
O        O      0.809000000000     0.179150000000     0.735800000000     0          
T        Si     0.812500000000     0.169200000000     0.794200000000     0          
O        O      0.695850000000     0.434000000000     0.610800000000     0          
T        Si     0.705800000000     0.437500000000     0.669200000000     0          
O        O      0.764200000000     0.441000000000     0.679150000000     0          
O        O      0.514200000000     0.309000000000     0.820850000000     0          
T        Si     0.955800000000     0.312500000000     0.830800000000     0          
O        O      0.566000000000     0.139200000000     0.695850000000     0          
T        Si     0.562500000000     0.080800000000     0.705800000000     0          
O        O      0.735800000000     0.191000000000     0.570850000000     0          
T        Si     0.794200000000     0.187500000000     0.580800000000     0          
O        O      0.934000000000     0.110800000000     0.695850000000     0          
O        O      0.985800000000     0.059000000000     0.929150000000     0          
O        O      0.566000000000     0.360800000000     0.554150000000     0          
T        Si     0.562500000000     0.419200000000     0.544200000000     0          
O        O      0.684000000000     0.139200000000     0.804150000000     0          
T        Si     0.687500000000     0.080800000000     0.794200000000     0          
O        O      0.570850000000     0.485800000000     0.809000000000     0          
T        Si     0.580800000000     0.044200000000     0.812500000000     0          
O        O      0.639200000000     0.445850000000     0.934000000000     0          
T        Si     0.580800000000     0.455800000000     0.937500000000     0          
O        O      0.679150000000     0.014200000000     0.559000000000     0          
T        Si     0.669200000000     0.455800000000     0.562500000000     0          
O        O      0.610800000000     0.054150000000     0.684000000000     0          
T        Si     0.669200000000     0.044200000000     0.687500000000     0          
O        O      0.570850000000     0.014200000000     0.941000000000     0          
O        O      0.610800000000     0.445850000000     0.566000000000     0          
O        O      0.679150000000     0.485800000000     0.691000000000     0          
O        O      0.639200000000     0.054150000000     0.816000000000     0          
O        O      0.809000000000     0.070850000000     0.985800000000     0          
T        Si     0.812500000000     0.080800000000     0.544200000000     0          
O        O      0.554150000000     0.184000000000     0.610800000000     0          
O        O      0.941000000000     0.429150000000     0.735800000000     0          
O        O      0.695850000000     0.316000000000     0.860800000000     0          
O        O      0.809000000000     0.429150000000     0.764200000000     0          
O        O      0.695850000000     0.184000000000     0.889200000000     0          
T        Si     0.705800000000     0.187500000000     0.830800000000     0          
O        O      0.941000000000     0.070850000000     0.514200000000     0          
O        O      0.554150000000     0.316000000000     0.639200000000     0          
T        Si     0.544200000000     0.312500000000     0.580800000000     0          
O        O      0.985800000000     0.309000000000     0.570850000000     0          
O        O      0.735800000000     0.441000000000     0.929150000000     0          
O        O      0.684000000000     0.110800000000     0.554150000000     0          
O        O      0.514200000000     0.059000000000     0.679150000000     0          
O        O      0.816000000000     0.139200000000     0.554150000000     0          
O        O      0.764200000000     0.191000000000     0.820850000000     0          
O        O      0.684000000000     0.389200000000     0.695850000000     0          
O        O      0.566000000000     0.110800000000     0.945850000000     0          
O        O      0.929150000000     0.014200000000     0.691000000000     0          
T        Si     0.919200000000     0.455800000000     0.687500000000     0          
O        O      0.860800000000     0.054150000000     0.566000000000     0          
T        Si     0.919200000000     0.044200000000     0.562500000000     0          
O        O      0.820850000000     0.485800000000     0.941000000000     0          
T        Si     0.830800000000     0.044200000000     0.937500000000     0          
O        O      0.889200000000     0.445850000000     0.816000000000     0          
T        Si     0.830800000000     0.455800000000     0.812500000000     0          
O        O      0.929150000000     0.485800000000     0.559000000000     0          
O        O      0.889200000000     0.054150000000     0.934000000000     0          
O        O      0.820850000000     0.014200000000     0.809000000000     0          
O        O      0.860800000000     0.445850000000     0.684000000000     0          
O        O      0.691000000000     0.429150000000     0.514200000000     0          
T        Si     0.687500000000     0.419200000000     0.955800000000     0          
O        O      0.945850000000     0.316000000000     0.889200000000     0          
O        O      0.559000000000     0.070850000000     0.764200000000     0          
O        O      0.804150000000     0.184000000000     0.639200000000     0          
O        O      0.691000000000     0.070850000000     0.735800000000     0          
O        O      0.804150000000     0.316000000000     0.610800000000     0          
T        Si     0.794200000000     0.312500000000     0.669200000000     0          
O        O      0.559000000000     0.429150000000     0.985800000000     0          
O        O      0.945850000000     0.184000000000     0.860800000000     0          
T        Si     0.955800000000     0.187500000000     0.919200000000     0          
O        O      0.514200000000     0.191000000000     0.929150000000     0          
O        O      0.764200000000     0.059000000000     0.570850000000     0          
O        O      0.816000000000     0.389200000000     0.945850000000     0          
O        O      0.985800000000     0.441000000000     0.820850000000     0          
O        O      0.684000000000     0.360800000000     0.945850000000     0          
O        O      0.735800000000     0.309000000000     0.679150000000     0          
O        O      0.816000000000     0.110800000000     0.804150000000     0          
O        O      0.934000000000     0.389200000000     0.554150000000     0          
O        O      0.820850000000     0.735800000000     0.059000000000     0          
T        Si     0.830800000000     0.794200000000     0.062500000000     0          
O        O      0.889200000000     0.695850000000     0.184000000000     0          
T        Si     0.830800000000     0.705800000000     0.187500000000     0          
O        O      0.929150000000     0.764200000000     0.309000000000     0          
T        Si     0.919200000000     0.705800000000     0.312500000000     0          
O        O      0.860800000000     0.804150000000     0.434000000000     0          
T        Si     0.919200000000     0.794200000000     0.437500000000     0          
O        O      0.820850000000     0.764200000000     0.191000000000     0          
O        O      0.860800000000     0.695850000000     0.316000000000     0          
O        O      0.929150000000     0.735800000000     0.441000000000     0          
O        O      0.889200000000     0.804150000000     0.066000000000     0          
O        O      0.559000000000     0.820850000000     0.235800000000     0          
T        Si     0.562500000000     0.830800000000     0.294200000000     0          
O        O      0.804150000000     0.934000000000     0.360800000000     0          
T        Si     0.794200000000     0.937500000000     0.419200000000     0          
O        O      0.691000000000     0.679150000000     0.485800000000     0          
T        Si     0.687500000000     0.669200000000     0.044200000000     0          
O        O      0.945850000000     0.566000000000     0.110800000000     0          
T        Si     0.955800000000     0.562500000000     0.169200000000     0          
O        O      0.559000000000     0.679150000000     0.014200000000     0          
T        Si     0.562500000000     0.669200000000     0.455800000000     0          
O        O      0.945850000000     0.934000000000     0.139200000000     0          
T        Si     0.955800000000     0.937500000000     0.080800000000     0          
O        O      0.691000000000     0.820850000000     0.264200000000     0          
T        Si     0.687500000000     0.830800000000     0.205800000000     0          
O        O      0.804150000000     0.566000000000     0.389200000000     0          
T        Si     0.794200000000     0.562500000000     0.330800000000     0          
O        O      0.735800000000     0.559000000000     0.320850000000     0          
O        O      0.985800000000     0.691000000000     0.179150000000     0          
T        Si     0.544200000000     0.687500000000     0.169200000000     0          
O        O      0.934000000000     0.860800000000     0.304150000000     0          
T        Si     0.937500000000     0.919200000000     0.294200000000     0          
O        O      0.764200000000     0.809000000000     0.429150000000     0          
T        Si     0.705800000000     0.812500000000     0.419200000000     0          
O        O      0.566000000000     0.889200000000     0.304150000000     0          
O        O      0.514200000000     0.941000000000     0.070850000000     0          
O        O      0.934000000000     0.639200000000     0.445850000000     0          
T        Si     0.937500000000     0.580800000000     0.455800000000     0          
O        O      0.816000000000     0.860800000000     0.195850000000     0          
T        Si     0.812500000000     0.919200000000     0.205800000000     0          
O        O      0.679150000000     0.764200000000     0.441000000000     0          
T        Si     0.669200000000     0.705800000000     0.437500000000     0          
O        O      0.610800000000     0.804150000000     0.316000000000     0          
T        Si     0.669200000000     0.794200000000     0.312500000000     0          
O        O      0.570850000000     0.735800000000     0.191000000000     0          
T        Si     0.580800000000     0.794200000000     0.187500000000     0          
O        O      0.639200000000     0.695850000000     0.066000000000     0          
T        Si     0.580800000000     0.705800000000     0.062500000000     0          
O        O      0.679150000000     0.735800000000     0.309000000000     0          
O        O      0.639200000000     0.804150000000     0.184000000000     0          
O        O      0.570850000000     0.764200000000     0.059000000000     0          
O        O      0.610800000000     0.695850000000     0.434000000000     0          
O        O      0.941000000000     0.679150000000     0.264200000000     0          
T        Si     0.937500000000     0.669200000000     0.205800000000     0          
O        O      0.695850000000     0.566000000000     0.139200000000     0          
T        Si     0.705800000000     0.562500000000     0.080800000000     0          
O        O      0.809000000000     0.820850000000     0.014200000000     0          
T        Si     0.812500000000     0.830800000000     0.455800000000     0          
O        O      0.554150000000     0.934000000000     0.389200000000     0          
T        Si     0.544200000000     0.937500000000     0.330800000000     0          
O        O      0.941000000000     0.820850000000     0.485800000000     0          
T        Si     0.937500000000     0.830800000000     0.044200000000     0          
O        O      0.554150000000     0.566000000000     0.360800000000     0          
T        Si     0.544200000000     0.562500000000     0.419200000000     0          
O        O      0.809000000000     0.679150000000     0.235800000000     0          
T        Si     0.812500000000     0.669200000000     0.294200000000     0          
O        O      0.695850000000     0.934000000000     0.110800000000     0          
T        Si     0.705800000000     0.937500000000     0.169200000000     0          
O        O      0.764200000000     0.941000000000     0.179150000000     0          
O        O      0.514200000000     0.809000000000     0.320850000000     0          
T        Si     0.955800000000     0.812500000000     0.330800000000     0          
O        O      0.566000000000     0.639200000000     0.195850000000     0          
T        Si     0.562500000000     0.580800000000     0.205800000000     0          
O        O      0.735800000000     0.691000000000     0.070850000000     0          
T        Si     0.794200000000     0.687500000000     0.080800000000     0          
O        O      0.934000000000     0.610800000000     0.195850000000     0          
O        O      0.985800000000     0.559000000000     0.429150000000     0          
O        O      0.566000000000     0.860800000000     0.054150000000     0          
T        Si     0.562500000000     0.919200000000     0.044200000000     0          
O        O      0.684000000000     0.639200000000     0.304150000000     0          
T        Si     0.687500000000     0.580800000000     0.294200000000     0          
O        O      0.570850000000     0.985800000000     0.309000000000     0          
T        Si     0.580800000000     0.544200000000     0.312500000000     0          
O        O      0.639200000000     0.945850000000     0.434000000000     0          
T        Si     0.580800000000     0.955800000000     0.437500000000     0          
O        O      0.679150000000     0.514200000000     0.059000000000     0          
T        Si     0.669200000000     0.955800000000     0.062500000000     0          
O        O      0.610800000000     0.554150000000     0.184000000000     0          
T        Si     0.669200000000     0.544200000000     0.187500000000     0          
O        O      0.570850000000     0.514200000000     0.441000000000     0          
O        O      0.610800000000     0.945850000000     0.066000000000     0          
O        O      0.679150000000     0.985800000000     0.191000000000     0          
O        O      0.639200000000     0.554150000000     0.316000000000     0          
O        O      0.809000000000     0.570850000000     0.485800000000     0          
T        Si     0.812500000000     0.580800000000     0.044200000000     0          
O        O      0.554150000000     0.684000000000     0.110800000000     0          
O        O      0.941000000000     0.929150000000     0.235800000000     0          
O        O      0.695850000000     0.816000000000     0.360800000000     0          
O        O      0.809000000000     0.929150000000     0.264200000000     0          
O        O      0.695850000000     0.684000000000     0.389200000000     0          
T        Si     0.705800000000     0.687500000000     0.330800000000     0          
O        O      0.941000000000     0.570850000000     0.014200000000     0          
O        O      0.554150000000     0.816000000000     0.139200000000     0          
T        Si     0.544200000000     0.812500000000     0.080800000000     0          
O        O      0.985800000000     0.809000000000     0.070850000000     0          
O        O      0.735800000000     0.941000000000     0.429150000000     0          
O        O      0.684000000000     0.610800000000     0.054150000000     0          
O        O      0.514200000000     0.559000000000     0.179150000000     0          
O        O      0.816000000000     0.639200000000     0.054150000000     0          
O        O      0.764200000000     0.691000000000     0.320850000000     0          
O        O      0.684000000000     0.889200000000     0.195850000000     0          
O        O      0.566000000000     0.610800000000     0.445850000000     0          
O        O      0.929150000000     0.514200000000     0.191000000000     0          
T        Si     0.919200000000     0.955800000000     0.187500000000     0          
O        O      0.860800000000     0.554150000000     0.066000000000     0          
T        Si     0.919200000000     0.544200000000     0.062500000000     0          
O        O      0.820850000000     0.985800000000     0.441000000000     0          
T        Si     0.830800000000     0.544200000000     0.437500000000     0          
O        O      0.889200000000     0.945850000000     0.316000000000     0          
T        Si     0.830800000000     0.955800000000     0.312500000000     0          
O        O      0.929150000000     0.985800000000     0.059000000000     0          
O        O      0.889200000000     0.554150000000     0.434000000000     0          
O        O      0.820850000000     0.514200000000     0.309000000000     0          
O        O      0.860800000000     0.945850000000     0.184000000000     0          
O        O      0.691000000000     0.929150000000     0.014200000000     0          
T        Si     0.687500000000     0.919200000000     0.455800000000     0          
O        O      0.945850000000     0.816000000000     0.389200000000     0          
O        O      0.559000000000     0.570850000000     0.264200000000     0          
O        O      0.804150000000     0.684000000000     0.139200000000     0          
O        O      0.691000000000     0.570850000000     0.235800000000     0          
O        O      0.804150000000     0.816000000000     0.110800000000     0          
T        Si     0.794200000000     0.812500000000     0.169200000000     0          
O        O      0.559000000000     0.929150000000     0.485800000000     0          
O        O      0.945850000000     0.684000000000     0.360800000000     0          
T        Si     0.955800000000     0.687500000000     0.419200000000     0          
O        O      0.514200000000     0.691000000000     0.429150000000     0          
O        O      0.764200000000     0.559000000000     0.070850000000     0          
O        O      0.816000000000     0.889200000000     0.445850000000     0          
O        O      0.985800000000     0.941000000000     0.320850000000     0          
O        O      0.684000000000     0.860800000000     0.445850000000     0          
O        O      0.735800000000     0.809000000000     0.179150000000     0          
O        O      0.816000000000     0.610800000000     0.304150000000     0          
O        O      0.934000000000     0.889200000000     0.054150000000     0          
O        O      0.820850000000     0.735800000000     0.559000000000     0          
T        Si     0.830800000000     0.794200000000     0.562500000000     0          
O        O      0.889200000000     0.695850000000     0.684000000000     0          
T        Si     0.830800000000     0.705800000000     0.687500000000     0          
O        O      0.929150000000     0.764200000000     0.809000000000     0          
T        Si     0.919200000000     0.705800000000     0.812500000000     0          
O        O      0.860800000000     0.804150000000     0.934000000000     0          
T        Si     0.919200000000     0.794200000000     0.937500000000     0          
O        O      0.820850000000     0.764200000000     0.691000000000     0          
O        O      0.860800000000     0.695850000000     0.816000000000     0          
O        O      0.929150000000     0.735800000000     0.941000000000     0          
O        O      0.889200000000     0.804150000000     0.566000000000     0          
O        O      0.559000000000     0.820850000000     0.735800000000     0          
T        Si     0.562500000000     0.830800000000     0.794200000000     0          
O        O      0.804150000000     0.934000000000     0.860800000000     0          
T        Si     0.794200000000     0.937500000000     0.919200000000     0          
O        O      0.691000000000     0.679150000000     0.985800000000     0          
T        Si     0.687500000000     0.669200000000     0.544200000000     0          
O        O      0.945850000000     0.566000000000     0.610800000000     0          
T        Si     0.955800000000     0.562500000000     0.669200000000     0          
O        O      0.559000000000     0.679150000000     0.514200000000     0          
T        Si     0.562500000000     0.669200000000     0.955800000000     0          
O        O      0.945850000000     0.934000000000     0.639200000000     0          
T        Si     0.955800000000     0.937500000000     0.580800000000     0          
O        O      0.691000000000     0.820850000000     0.764200000000     0          
T        Si     0.687500000000     0.830800000000     0.705800000000     0          
O        O      0.804150000000     0.566000000000     0.889200000000     0          
T        Si     0.794200000000     0.562500000000     0.830800000000     0          
O        O      0.735800000000     0.559000000000     0.820850000000     0          
O        O      0.985800000000     0.691000000000     0.679150000000     0          
T        Si     0.544200000000     0.687500000000     0.669200000000     0          
O        O      0.934000000000     0.860800000000     0.804150000000     0          
T        Si     0.937500000000     0.919200000000     0.794200000000     0          
O        O      0.764200000000     0.809000000000     0.929150000000     0          
T        Si     0.705800000000     0.812500000000     0.919200000000     0          
O        O      0.566000000000     0.889200000000     0.804150000000     0          
O        O      0.514200000000     0.941000000000     0.570850000000     0          
O        O      0.934000000000     0.639200000000     0.945850000000     0          
T        Si     0.937500000000     0.580800000000     0.955800000000     0          
O        O      0.816000000000     0.860800000000     0.695850000000     0          
T        Si     0.812500000000     0.919200000000     0.705800000000     0          
O        O      0.679150000000     0.764200000000     0.941000000000     0          
T        Si     0.669200000000     0.705800000000     0.937500000000     0          
O        O      0.610800000000     0.804150000000     0.816000000000     0          
T        Si     0.669200000000     0.794200000000     0.812500000000     0          
O        O      0.570850000000     0.735800000000     0.691000000000     0          
T        Si     0.580800000000     0.794200000000     0.687500000000     0          
O        O      0.639200000000     0.695850000000     0.566000000000     0          
T        Si     0.580800000000     0.705800000000     0.562500000000     0          
O        O      0.679150000000     0.735800000000     0.809000000000     0          
O        O      0.639200000000     0.804150000000     0.684000000000     0          
O        O      0.570850000000     0.764200000000     0.559000000000     0          
O        O      0.610800000000     0.695850000000     0.934000000000     0          
O        O      0.941000000000     0.679150000000     0.764200000000     0          
T        Si     0.937500000000     0.669200000000     0.705800000000     0          
O        O      0.695850000000     0.566000000000     0.639200000000     0          
T        Si     0.705800000000     0.562500000000     0.580800000000     0          
O        O      0.809000000000     0.820850000000     0.514200000000     0          
T        Si     0.812500000000     0.830800000000     0.955800000000     0          
O        O      0.554150000000     0.934000000000     0.889200000000     0          
T        Si     0.544200000000     0.937500000000     0.830800000000     0          
O        O      0.941000000000     0.820850000000     0.985800000000     0          
T        Si     0.937500000000     0.830800000000     0.544200000000     0          
O        O      0.554150000000     0.566000000000     0.860800000000     0          
T        Si     0.544200000000     0.562500000000     0.919200000000     0          
O        O      0.809000000000     0.679150000000     0.735800000000     0          
T        Si     0.812500000000     0.669200000000     0.794200000000     0          
O        O      0.695850000000     0.934000000000     0.610800000000     0          
T        Si     0.705800000000     0.937500000000     0.669200000000     0          
O        O      0.764200000000     0.941000000000     0.679150000000     0          
O        O      0.514200000000     0.809000000000     0.820850000000     0          
T        Si     0.955800000000     0.812500000000     0.830800000000     0          
O        O      0.566000000000     0.639200000000     0.695850000000     0          
T        Si     0.562500000000     0.580800000000     0.705800000000     0          
O        O      0.735800000000     0.691000000000     0.570850000000     0          
T        Si     0.794200000000     0.687500000000     0.580800000000     0          
O        O      0.934000000000     0.610800000000     0.695850000000     0          
O        O      0.985800000000     0.559000000000     0.929150000000     0          
O        O      0.566000000000     0.860800000000     0.554150000000     0          
T        Si     0.562500000000     0.919200000000     0.544200000000     0          
O        O      0.684000000000     0.639200000000     0.804150000000     0          
T        Si     0.687500000000     0.580800000000     0.794200000000     0          
O        O      0.570850000000     0.985800000000     0.809000000000     0          
T        Si     0.580800000000     0.544200000000     0.812500000000     0          
O        O      0.639200000000     0.945850000000     0.934000000000     0          
T        Si     0.580800000000     0.955800000000     0.937500000000     0          
O        O      0.679150000000     0.514200000000     0.559000000000     0          
T        Si     0.669200000000     0.955800000000     0.562500000000     0          
O        O      0.610800000000     0.554150000000     0.684000000000     0          
T        Si     0.669200000000     0.544200000000     0.687500000000     0          
O        O      0.570850000000     0.514200000000     0.941000000000     0          
O        O      0.610800000000     0.945850000000     0.566000000000     0          
O        O      0.679150000000     0.985800000000     0.691000000000     0          
O        O      0.639200000000     0.554150000000     0.816000000000     0          
O        O      0.809000000000     0.570850000000     0.985800000000     0          
T        Si     0.812500000000     0.580800000000     0.544200000000     0          
O        O      0.554150000000     0.684000000000     0.610800000000     0          
O        O      0.941000000000     0.929150000000     0.735800000000     0          
O        O      0.695850000000     0.816000000000     0.860800000000     0          
O        O      0.809000000000     0.929150000000     0.764200000000     0          
O        O      0.695850000000     0.684000000000     0.889200000000     0          
T        Si     0.705800000000     0.687500000000     0.830800000000     0          
O        O      0.941000000000     0.570850000000     0.514200000000     0          
O        O      0.554150000000     0.816000000000     0.639200000000     0          
T        Si     0.544200000000     0.812500000000     0.580800000000     0          
O        O      0.985800000000     0.809000000000     0.570850000000     0          
O        O      0.735800000000     0.941000000000     0.929150000000     0          
O        O      0.684000000000     0.610800000000     0.554150000000     0          
O        O      0.514200000000     0.559000000000     0.679150000000     0          
O        O      0.816000000000     0.639200000000     0.554150000000     0          
O        O      0.764200000000     0.691000000000     0.820850000000     0          
O        O      0.684000000000     0.889200000000     0.695850000000     0          
O        O      0.566000000000     0.610800000000     0.945850000000     0          
O        O      0.929150000000     0.514200000000     0.691000000000     0          
T        Si     0.919200000000     0.955800000000     0.687500000000     0          
O        O      0.860800000000     0.554150000000     0.566000000000     0          
T        Si     0.919200000000     0.544200000000     0.562500000000     0          
O        O      0.820850000000     0.985800000000     0.941000000000     0          
T        Si     0.830800000000     0.544200000000     0.937500000000     0          
O        O      0.889200000000     0.945850000000     0.816000000000     0          
T        Si     0.830800000000     0.955800000000     0.812500000000     0          
O        O      0.929150000000     0.985800000000     0.559000000000     0          
O        O      0.889200000000     0.554150000000     0.934000000000     0          
O        O      0.820850000000     0.514200000000     0.809000000000     0          
O        O      0.860800000000     0.945850000000     0.684000000000     0          
O        O      0.691000000000     0.929150000000     0.514200000000     0          
T        Si     0.687500000000     0.919200000000     0.955800000000     0          
O        O      0.945850000000     0.816000000000     0.889200000000     0          
O        O      0.559000000000     0.570850000000     0.764200000000     0          
O        O      0.804150000000     0.684000000000     0.639200000000     0          
O        O      0.691000000000     0.570850000000     0.735800000000     0          
O        O      0.804150000000     0.816000000000     0.610800000000     0          
T        Si     0.794200000000     0.812500000000     0.669200000000     0          
O        O      0.559000000000     0.929150000000     0.985800000000     0          
O        O      0.945850000000     0.684000000000     0.860800000000     0          
T        Si     0.955800000000     0.687500000000     0.919200000000     0          
O        O      0.514200000000     0.691000000000     0.929150000000     0          
O        O      0.764200000000     0.559000000000     0.570850000000     0          
O        O      0.816000000000     0.889200000000     0.945850000000     0          
O        O      0.985800000000     0.941000000000     0.820850000000     0          
O        O      0.684000000000     0.860800000000     0.945850000000     0          
O        O      0.735800000000     0.809000000000     0.679150000000     0          
O        O      0.816000000000     0.610800000000     0.804150000000     0          
O        O      0.934000000000     0.889200000000     0.554150000000     0          


