data_zeolite

_audit_creation_method RASPA-1.0
_audit_creation_date 2021-6-7
_audit_author_name ''

_cell_length_a    28
_cell_length_b    28
_cell_length_c    25.928
_cell_angle_alpha 90
_cell_angle_beta  90
_cell_angle_gamma 90
_cell_volume      20327.6

_symmetry_cell_setting          orthorhombic
_symmetry_space_group_name_Hall 'P 1'
_symmetry_space_group_name_H-M  'P 1'
_symmetry_Int_Tables_number     1

_symmetry_equiv_pos_as_xyz 'x,y,z'

loop_
_atom_site_label
_atom_site_type_symbol
_atom_site_fract_x
_atom_site_fract_y
_atom_site_fract_z
_atom_site_charge
O        O      0.000000000000     0.000000000000     0.125000000000     0          
O        O      0.077550000000     0.047450000000     0.095450000000     0          
O        O      0.077500000000     0.000000000000     0.184200000000     0          
O        O      0.125000000000     0.125000000000     0.065875000000     0          
O        O      0.125000000000     0.047475000000     0.006700000000     0          
T        Si     0.058050000000     0.000000000000     0.125025000000     0          
T        Si     0.125000000000     0.066975000000     0.065850000000     0          
T        Si     0.125000000000     0.000000000000     0.220450000000     0          
O        O      0.250000000000     0.000000000000     0.125000000000     0          
O        O      0.172450000000     0.202550000000     0.095450000000     0          
O        O      0.172500000000     0.000000000000     0.184200000000     0          
O        O      0.125000000000     0.202525000000     0.006700000000     0          
T        Si     0.191950000000     0.000000000000     0.125025000000     0          
T        Si     0.125000000000     0.183025000000     0.065850000000     0          
O        O      0.327550000000     0.202550000000     0.154550000000     0          
O        O      0.327500000000     0.000000000000     0.065800000000     0          
O        O      0.375000000000     0.125000000000     0.184125000000     0          
O        O      0.375000000000     0.202525000000     0.243300000000     0          
T        Si     0.308050000000     0.000000000000     0.124975000000     0          
T        Si     0.375000000000     0.183025000000     0.184150000000     0          
T        Si     0.375000000000     0.000000000000     0.029550000000     0          
O        O      0.422450000000     0.047450000000     0.154550000000     0          
O        O      0.422500000000     0.000000000000     0.065800000000     0          
O        O      0.375000000000     0.047475000000     0.243300000000     0          
T        Si     0.441950000000     0.000000000000     0.124975000000     0          
T        Si     0.375000000000     0.066975000000     0.184150000000     0          
O        O      0.422450000000     0.202550000000     0.154550000000     0          
O        O      0.327550000000     0.047450000000     0.154550000000     0          
O        O      0.172450000000     0.047450000000     0.095450000000     0          
O        O      0.077550000000     0.202550000000     0.095450000000     0          
O        O      0.000000000000     0.000000000000     0.375000000000     0          
O        O      0.077550000000     0.047450000000     0.345450000000     0          
O        O      0.077500000000     0.000000000000     0.434200000000     0          
O        O      0.125000000000     0.125000000000     0.315875000000     0          
O        O      0.125000000000     0.047475000000     0.256700000000     0          
T        Si     0.058050000000     0.000000000000     0.375025000000     0          
T        Si     0.125000000000     0.066975000000     0.315850000000     0          
T        Si     0.125000000000     0.000000000000     0.470450000000     0          
O        O      0.250000000000     0.000000000000     0.375000000000     0          
O        O      0.172450000000     0.202550000000     0.345450000000     0          
O        O      0.172500000000     0.000000000000     0.434200000000     0          
O        O      0.125000000000     0.202525000000     0.256700000000     0          
T        Si     0.191950000000     0.000000000000     0.375025000000     0          
T        Si     0.125000000000     0.183025000000     0.315850000000     0          
O        O      0.327550000000     0.202550000000     0.404550000000     0          
O        O      0.327500000000     0.000000000000     0.315800000000     0          
O        O      0.375000000000     0.125000000000     0.434125000000     0          
O        O      0.375000000000     0.202525000000     0.493300000000     0          
T        Si     0.308050000000     0.000000000000     0.374975000000     0          
T        Si     0.375000000000     0.183025000000     0.434150000000     0          
T        Si     0.375000000000     0.000000000000     0.279550000000     0          
O        O      0.422450000000     0.047450000000     0.404550000000     0          
O        O      0.422500000000     0.000000000000     0.315800000000     0          
O        O      0.375000000000     0.047475000000     0.493300000000     0          
T        Si     0.441950000000     0.000000000000     0.374975000000     0          
T        Si     0.375000000000     0.066975000000     0.434150000000     0          
O        O      0.422450000000     0.202550000000     0.404550000000     0          
O        O      0.327550000000     0.047450000000     0.404550000000     0          
O        O      0.172450000000     0.047450000000     0.345450000000     0          
O        O      0.077550000000     0.202550000000     0.345450000000     0          
O        O      0.000000000000     0.000000000000     0.625000000000     0          
O        O      0.077550000000     0.047450000000     0.595450000000     0          
O        O      0.077500000000     0.000000000000     0.684200000000     0          
O        O      0.125000000000     0.125000000000     0.565875000000     0          
O        O      0.125000000000     0.047475000000     0.506700000000     0          
T        Si     0.058050000000     0.000000000000     0.625025000000     0          
T        Si     0.125000000000     0.066975000000     0.565850000000     0          
T        Si     0.125000000000     0.000000000000     0.720450000000     0          
O        O      0.250000000000     0.000000000000     0.625000000000     0          
O        O      0.172450000000     0.202550000000     0.595450000000     0          
O        O      0.172500000000     0.000000000000     0.684200000000     0          
O        O      0.125000000000     0.202525000000     0.506700000000     0          
T        Si     0.191950000000     0.000000000000     0.625025000000     0          
T        Si     0.125000000000     0.183025000000     0.565850000000     0          
O        O      0.327550000000     0.202550000000     0.654550000000     0          
O        O      0.327500000000     0.000000000000     0.565800000000     0          
O        O      0.375000000000     0.125000000000     0.684125000000     0          
O        O      0.375000000000     0.202525000000     0.743300000000     0          
T        Si     0.308050000000     0.000000000000     0.624975000000     0          
T        Si     0.375000000000     0.183025000000     0.684150000000     0          
T        Si     0.375000000000     0.000000000000     0.529550000000     0          
O        O      0.422450000000     0.047450000000     0.654550000000     0          
O        O      0.422500000000     0.000000000000     0.565800000000     0          
O        O      0.375000000000     0.047475000000     0.743300000000     0          
T        Si     0.441950000000     0.000000000000     0.624975000000     0          
T        Si     0.375000000000     0.066975000000     0.684150000000     0          
O        O      0.422450000000     0.202550000000     0.654550000000     0          
O        O      0.327550000000     0.047450000000     0.654550000000     0          
O        O      0.172450000000     0.047450000000     0.595450000000     0          
O        O      0.077550000000     0.202550000000     0.595450000000     0          
O        O      0.000000000000     0.000000000000     0.875000000000     0          
O        O      0.077550000000     0.047450000000     0.845450000000     0          
O        O      0.077500000000     0.000000000000     0.934200000000     0          
O        O      0.125000000000     0.125000000000     0.815875000000     0          
O        O      0.125000000000     0.047475000000     0.756700000000     0          
T        Si     0.058050000000     0.000000000000     0.875025000000     0          
T        Si     0.125000000000     0.066975000000     0.815850000000     0          
T        Si     0.125000000000     0.000000000000     0.970450000000     0          
O        O      0.250000000000     0.000000000000     0.875000000000     0          
O        O      0.172450000000     0.202550000000     0.845450000000     0          
O        O      0.172500000000     0.000000000000     0.934200000000     0          
O        O      0.125000000000     0.202525000000     0.756700000000     0          
T        Si     0.191950000000     0.000000000000     0.875025000000     0          
T        Si     0.125000000000     0.183025000000     0.815850000000     0          
O        O      0.327550000000     0.202550000000     0.904550000000     0          
O        O      0.327500000000     0.000000000000     0.815800000000     0          
O        O      0.375000000000     0.125000000000     0.934125000000     0          
O        O      0.375000000000     0.202525000000     0.993300000000     0          
T        Si     0.308050000000     0.000000000000     0.874975000000     0          
T        Si     0.375000000000     0.183025000000     0.934150000000     0          
T        Si     0.375000000000     0.000000000000     0.779550000000     0          
O        O      0.422450000000     0.047450000000     0.904550000000     0          
O        O      0.422500000000     0.000000000000     0.815800000000     0          
O        O      0.375000000000     0.047475000000     0.993300000000     0          
T        Si     0.441950000000     0.000000000000     0.874975000000     0          
T        Si     0.375000000000     0.066975000000     0.934150000000     0          
O        O      0.422450000000     0.202550000000     0.904550000000     0          
O        O      0.327550000000     0.047450000000     0.904550000000     0          
O        O      0.172450000000     0.047450000000     0.845450000000     0          
O        O      0.077550000000     0.202550000000     0.845450000000     0          
O        O      0.000000000000     0.250000000000     0.125000000000     0          
O        O      0.077550000000     0.297450000000     0.095450000000     0          
O        O      0.077500000000     0.250000000000     0.184200000000     0          
O        O      0.125000000000     0.375000000000     0.065875000000     0          
O        O      0.125000000000     0.297475000000     0.006700000000     0          
T        Si     0.058050000000     0.250000000000     0.125025000000     0          
T        Si     0.125000000000     0.316975000000     0.065850000000     0          
T        Si     0.125000000000     0.250000000000     0.220450000000     0          
O        O      0.250000000000     0.250000000000     0.125000000000     0          
O        O      0.172450000000     0.452550000000     0.095450000000     0          
O        O      0.172500000000     0.250000000000     0.184200000000     0          
O        O      0.125000000000     0.452525000000     0.006700000000     0          
T        Si     0.191950000000     0.250000000000     0.125025000000     0          
T        Si     0.125000000000     0.433025000000     0.065850000000     0          
O        O      0.327550000000     0.452550000000     0.154550000000     0          
O        O      0.327500000000     0.250000000000     0.065800000000     0          
O        O      0.375000000000     0.375000000000     0.184125000000     0          
O        O      0.375000000000     0.452525000000     0.243300000000     0          
T        Si     0.308050000000     0.250000000000     0.124975000000     0          
T        Si     0.375000000000     0.433025000000     0.184150000000     0          
T        Si     0.375000000000     0.250000000000     0.029550000000     0          
O        O      0.422450000000     0.297450000000     0.154550000000     0          
O        O      0.422500000000     0.250000000000     0.065800000000     0          
O        O      0.375000000000     0.297475000000     0.243300000000     0          
T        Si     0.441950000000     0.250000000000     0.124975000000     0          
T        Si     0.375000000000     0.316975000000     0.184150000000     0          
O        O      0.422450000000     0.452550000000     0.154550000000     0          
O        O      0.327550000000     0.297450000000     0.154550000000     0          
O        O      0.172450000000     0.297450000000     0.095450000000     0          
O        O      0.077550000000     0.452550000000     0.095450000000     0          
O        O      0.000000000000     0.250000000000     0.375000000000     0          
O        O      0.077550000000     0.297450000000     0.345450000000     0          
O        O      0.077500000000     0.250000000000     0.434200000000     0          
O        O      0.125000000000     0.375000000000     0.315875000000     0          
O        O      0.125000000000     0.297475000000     0.256700000000     0          
T        Si     0.058050000000     0.250000000000     0.375025000000     0          
T        Si     0.125000000000     0.316975000000     0.315850000000     0          
T        Si     0.125000000000     0.250000000000     0.470450000000     0          
O        O      0.250000000000     0.250000000000     0.375000000000     0          
O        O      0.172450000000     0.452550000000     0.345450000000     0          
O        O      0.172500000000     0.250000000000     0.434200000000     0          
O        O      0.125000000000     0.452525000000     0.256700000000     0          
T        Si     0.191950000000     0.250000000000     0.375025000000     0          
T        Si     0.125000000000     0.433025000000     0.315850000000     0          
O        O      0.327550000000     0.452550000000     0.404550000000     0          
O        O      0.327500000000     0.250000000000     0.315800000000     0          
O        O      0.375000000000     0.375000000000     0.434125000000     0          
O        O      0.375000000000     0.452525000000     0.493300000000     0          
T        Si     0.308050000000     0.250000000000     0.374975000000     0          
T        Si     0.375000000000     0.433025000000     0.434150000000     0          
T        Si     0.375000000000     0.250000000000     0.279550000000     0          
O        O      0.422450000000     0.297450000000     0.404550000000     0          
O        O      0.422500000000     0.250000000000     0.315800000000     0          
O        O      0.375000000000     0.297475000000     0.493300000000     0          
T        Si     0.441950000000     0.250000000000     0.374975000000     0          
T        Si     0.375000000000     0.316975000000     0.434150000000     0          
O        O      0.422450000000     0.452550000000     0.404550000000     0          
O        O      0.327550000000     0.297450000000     0.404550000000     0          
O        O      0.172450000000     0.297450000000     0.345450000000     0          
O        O      0.077550000000     0.452550000000     0.345450000000     0          
O        O      0.000000000000     0.250000000000     0.625000000000     0          
O        O      0.077550000000     0.297450000000     0.595450000000     0          
O        O      0.077500000000     0.250000000000     0.684200000000     0          
O        O      0.125000000000     0.375000000000     0.565875000000     0          
O        O      0.125000000000     0.297475000000     0.506700000000     0          
T        Si     0.058050000000     0.250000000000     0.625025000000     0          
T        Si     0.125000000000     0.316975000000     0.565850000000     0          
T        Si     0.125000000000     0.250000000000     0.720450000000     0          
O        O      0.250000000000     0.250000000000     0.625000000000     0          
O        O      0.172450000000     0.452550000000     0.595450000000     0          
O        O      0.172500000000     0.250000000000     0.684200000000     0          
O        O      0.125000000000     0.452525000000     0.506700000000     0          
T        Si     0.191950000000     0.250000000000     0.625025000000     0          
T        Si     0.125000000000     0.433025000000     0.565850000000     0          
O        O      0.327550000000     0.452550000000     0.654550000000     0          
O        O      0.327500000000     0.250000000000     0.565800000000     0          
O        O      0.375000000000     0.375000000000     0.684125000000     0          
O        O      0.375000000000     0.452525000000     0.743300000000     0          
T        Si     0.308050000000     0.250000000000     0.624975000000     0          
T        Si     0.375000000000     0.433025000000     0.684150000000     0          
T        Si     0.375000000000     0.250000000000     0.529550000000     0          
O        O      0.422450000000     0.297450000000     0.654550000000     0          
O        O      0.422500000000     0.250000000000     0.565800000000     0          
O        O      0.375000000000     0.297475000000     0.743300000000     0          
T        Si     0.441950000000     0.250000000000     0.624975000000     0          
T        Si     0.375000000000     0.316975000000     0.684150000000     0          
O        O      0.422450000000     0.452550000000     0.654550000000     0          
O        O      0.327550000000     0.297450000000     0.654550000000     0          
O        O      0.172450000000     0.297450000000     0.595450000000     0          
O        O      0.077550000000     0.452550000000     0.595450000000     0          
O        O      0.000000000000     0.250000000000     0.875000000000     0          
O        O      0.077550000000     0.297450000000     0.845450000000     0          
O        O      0.077500000000     0.250000000000     0.934200000000     0          
O        O      0.125000000000     0.375000000000     0.815875000000     0          
O        O      0.125000000000     0.297475000000     0.756700000000     0          
T        Si     0.058050000000     0.250000000000     0.875025000000     0          
T        Si     0.125000000000     0.316975000000     0.815850000000     0          
T        Si     0.125000000000     0.250000000000     0.970450000000     0          
O        O      0.250000000000     0.250000000000     0.875000000000     0          
O        O      0.172450000000     0.452550000000     0.845450000000     0          
O        O      0.172500000000     0.250000000000     0.934200000000     0          
O        O      0.125000000000     0.452525000000     0.756700000000     0          
T        Si     0.191950000000     0.250000000000     0.875025000000     0          
T        Si     0.125000000000     0.433025000000     0.815850000000     0          
O        O      0.327550000000     0.452550000000     0.904550000000     0          
O        O      0.327500000000     0.250000000000     0.815800000000     0          
O        O      0.375000000000     0.375000000000     0.934125000000     0          
O        O      0.375000000000     0.452525000000     0.993300000000     0          
T        Si     0.308050000000     0.250000000000     0.874975000000     0          
T        Si     0.375000000000     0.433025000000     0.934150000000     0          
T        Si     0.375000000000     0.250000000000     0.779550000000     0          
O        O      0.422450000000     0.297450000000     0.904550000000     0          
O        O      0.422500000000     0.250000000000     0.815800000000     0          
O        O      0.375000000000     0.297475000000     0.993300000000     0          
T        Si     0.441950000000     0.250000000000     0.874975000000     0          
T        Si     0.375000000000     0.316975000000     0.934150000000     0          
O        O      0.422450000000     0.452550000000     0.904550000000     0          
O        O      0.327550000000     0.297450000000     0.904550000000     0          
O        O      0.172450000000     0.297450000000     0.845450000000     0          
O        O      0.077550000000     0.452550000000     0.845450000000     0          
O        O      0.000000000000     0.500000000000     0.125000000000     0          
O        O      0.077550000000     0.547450000000     0.095450000000     0          
O        O      0.077500000000     0.500000000000     0.184200000000     0          
O        O      0.125000000000     0.625000000000     0.065875000000     0          
O        O      0.125000000000     0.547475000000     0.006700000000     0          
T        Si     0.058050000000     0.500000000000     0.125025000000     0          
T        Si     0.125000000000     0.566975000000     0.065850000000     0          
T        Si     0.125000000000     0.500000000000     0.220450000000     0          
O        O      0.250000000000     0.500000000000     0.125000000000     0          
O        O      0.172450000000     0.702550000000     0.095450000000     0          
O        O      0.172500000000     0.500000000000     0.184200000000     0          
O        O      0.125000000000     0.702525000000     0.006700000000     0          
T        Si     0.191950000000     0.500000000000     0.125025000000     0          
T        Si     0.125000000000     0.683025000000     0.065850000000     0          
O        O      0.327550000000     0.702550000000     0.154550000000     0          
O        O      0.327500000000     0.500000000000     0.065800000000     0          
O        O      0.375000000000     0.625000000000     0.184125000000     0          
O        O      0.375000000000     0.702525000000     0.243300000000     0          
T        Si     0.308050000000     0.500000000000     0.124975000000     0          
T        Si     0.375000000000     0.683025000000     0.184150000000     0          
T        Si     0.375000000000     0.500000000000     0.029550000000     0          
O        O      0.422450000000     0.547450000000     0.154550000000     0          
O        O      0.422500000000     0.500000000000     0.065800000000     0          
O        O      0.375000000000     0.547475000000     0.243300000000     0          
T        Si     0.441950000000     0.500000000000     0.124975000000     0          
T        Si     0.375000000000     0.566975000000     0.184150000000     0          
O        O      0.422450000000     0.702550000000     0.154550000000     0          
O        O      0.327550000000     0.547450000000     0.154550000000     0          
O        O      0.172450000000     0.547450000000     0.095450000000     0          
O        O      0.077550000000     0.702550000000     0.095450000000     0          
O        O      0.000000000000     0.500000000000     0.375000000000     0          
O        O      0.077550000000     0.547450000000     0.345450000000     0          
O        O      0.077500000000     0.500000000000     0.434200000000     0          
O        O      0.125000000000     0.625000000000     0.315875000000     0          
O        O      0.125000000000     0.547475000000     0.256700000000     0          
T        Si     0.058050000000     0.500000000000     0.375025000000     0          
T        Si     0.125000000000     0.566975000000     0.315850000000     0          
T        Si     0.125000000000     0.500000000000     0.470450000000     0          
O        O      0.250000000000     0.500000000000     0.375000000000     0          
O        O      0.172450000000     0.702550000000     0.345450000000     0          
O        O      0.172500000000     0.500000000000     0.434200000000     0          
O        O      0.125000000000     0.702525000000     0.256700000000     0          
T        Si     0.191950000000     0.500000000000     0.375025000000     0          
T        Si     0.125000000000     0.683025000000     0.315850000000     0          
O        O      0.327550000000     0.702550000000     0.404550000000     0          
O        O      0.327500000000     0.500000000000     0.315800000000     0          
O        O      0.375000000000     0.625000000000     0.434125000000     0          
O        O      0.375000000000     0.702525000000     0.493300000000     0          
T        Si     0.308050000000     0.500000000000     0.374975000000     0          
T        Si     0.375000000000     0.683025000000     0.434150000000     0          
T        Si     0.375000000000     0.500000000000     0.279550000000     0          
O        O      0.422450000000     0.547450000000     0.404550000000     0          
O        O      0.422500000000     0.500000000000     0.315800000000     0          
O        O      0.375000000000     0.547475000000     0.493300000000     0          
T        Si     0.441950000000     0.500000000000     0.374975000000     0          
T        Si     0.375000000000     0.566975000000     0.434150000000     0          
O        O      0.422450000000     0.702550000000     0.404550000000     0          
O        O      0.327550000000     0.547450000000     0.404550000000     0          
O        O      0.172450000000     0.547450000000     0.345450000000     0          
O        O      0.077550000000     0.702550000000     0.345450000000     0          
O        O      0.000000000000     0.500000000000     0.625000000000     0          
O        O      0.077550000000     0.547450000000     0.595450000000     0          
O        O      0.077500000000     0.500000000000     0.684200000000     0          
O        O      0.125000000000     0.625000000000     0.565875000000     0          
O        O      0.125000000000     0.547475000000     0.506700000000     0          
T        Si     0.058050000000     0.500000000000     0.625025000000     0          
T        Si     0.125000000000     0.566975000000     0.565850000000     0          
T        Si     0.125000000000     0.500000000000     0.720450000000     0          
O        O      0.250000000000     0.500000000000     0.625000000000     0          
O        O      0.172450000000     0.702550000000     0.595450000000     0          
O        O      0.172500000000     0.500000000000     0.684200000000     0          
O        O      0.125000000000     0.702525000000     0.506700000000     0          
T        Si     0.191950000000     0.500000000000     0.625025000000     0          
T        Si     0.125000000000     0.683025000000     0.565850000000     0          
O        O      0.327550000000     0.702550000000     0.654550000000     0          
O        O      0.327500000000     0.500000000000     0.565800000000     0          
O        O      0.375000000000     0.625000000000     0.684125000000     0          
O        O      0.375000000000     0.702525000000     0.743300000000     0          
T        Si     0.308050000000     0.500000000000     0.624975000000     0          
T        Si     0.375000000000     0.683025000000     0.684150000000     0          
T        Si     0.375000000000     0.500000000000     0.529550000000     0          
O        O      0.422450000000     0.547450000000     0.654550000000     0          
O        O      0.422500000000     0.500000000000     0.565800000000     0          
O        O      0.375000000000     0.547475000000     0.743300000000     0          
T        Si     0.441950000000     0.500000000000     0.624975000000     0          
T        Si     0.375000000000     0.566975000000     0.684150000000     0          
O        O      0.422450000000     0.702550000000     0.654550000000     0          
O        O      0.327550000000     0.547450000000     0.654550000000     0          
O        O      0.172450000000     0.547450000000     0.595450000000     0          
O        O      0.077550000000     0.702550000000     0.595450000000     0          
O        O      0.000000000000     0.500000000000     0.875000000000     0          
O        O      0.077550000000     0.547450000000     0.845450000000     0          
O        O      0.077500000000     0.500000000000     0.934200000000     0          
O        O      0.125000000000     0.625000000000     0.815875000000     0          
O        O      0.125000000000     0.547475000000     0.756700000000     0          
T        Si     0.058050000000     0.500000000000     0.875025000000     0          
T        Si     0.125000000000     0.566975000000     0.815850000000     0          
T        Si     0.125000000000     0.500000000000     0.970450000000     0          
O        O      0.250000000000     0.500000000000     0.875000000000     0          
O        O      0.172450000000     0.702550000000     0.845450000000     0          
O        O      0.172500000000     0.500000000000     0.934200000000     0          
O        O      0.125000000000     0.702525000000     0.756700000000     0          
T        Si     0.191950000000     0.500000000000     0.875025000000     0          
T        Si     0.125000000000     0.683025000000     0.815850000000     0          
O        O      0.327550000000     0.702550000000     0.904550000000     0          
O        O      0.327500000000     0.500000000000     0.815800000000     0          
O        O      0.375000000000     0.625000000000     0.934125000000     0          
O        O      0.375000000000     0.702525000000     0.993300000000     0          
T        Si     0.308050000000     0.500000000000     0.874975000000     0          
T        Si     0.375000000000     0.683025000000     0.934150000000     0          
T        Si     0.375000000000     0.500000000000     0.779550000000     0          
O        O      0.422450000000     0.547450000000     0.904550000000     0          
O        O      0.422500000000     0.500000000000     0.815800000000     0          
O        O      0.375000000000     0.547475000000     0.993300000000     0          
T        Si     0.441950000000     0.500000000000     0.874975000000     0          
T        Si     0.375000000000     0.566975000000     0.934150000000     0          
O        O      0.422450000000     0.702550000000     0.904550000000     0          
O        O      0.327550000000     0.547450000000     0.904550000000     0          
O        O      0.172450000000     0.547450000000     0.845450000000     0          
O        O      0.077550000000     0.702550000000     0.845450000000     0          
O        O      0.000000000000     0.750000000000     0.125000000000     0          
O        O      0.077550000000     0.797450000000     0.095450000000     0          
O        O      0.077500000000     0.750000000000     0.184200000000     0          
O        O      0.125000000000     0.875000000000     0.065875000000     0          
O        O      0.125000000000     0.797475000000     0.006700000000     0          
T        Si     0.058050000000     0.750000000000     0.125025000000     0          
T        Si     0.125000000000     0.816975000000     0.065850000000     0          
T        Si     0.125000000000     0.750000000000     0.220450000000     0          
O        O      0.250000000000     0.750000000000     0.125000000000     0          
O        O      0.172450000000     0.952550000000     0.095450000000     0          
O        O      0.172500000000     0.750000000000     0.184200000000     0          
O        O      0.125000000000     0.952525000000     0.006700000000     0          
T        Si     0.191950000000     0.750000000000     0.125025000000     0          
T        Si     0.125000000000     0.933025000000     0.065850000000     0          
O        O      0.327550000000     0.952550000000     0.154550000000     0          
O        O      0.327500000000     0.750000000000     0.065800000000     0          
O        O      0.375000000000     0.875000000000     0.184125000000     0          
O        O      0.375000000000     0.952525000000     0.243300000000     0          
T        Si     0.308050000000     0.750000000000     0.124975000000     0          
T        Si     0.375000000000     0.933025000000     0.184150000000     0          
T        Si     0.375000000000     0.750000000000     0.029550000000     0          
O        O      0.422450000000     0.797450000000     0.154550000000     0          
O        O      0.422500000000     0.750000000000     0.065800000000     0          
O        O      0.375000000000     0.797475000000     0.243300000000     0          
T        Si     0.441950000000     0.750000000000     0.124975000000     0          
T        Si     0.375000000000     0.816975000000     0.184150000000     0          
O        O      0.422450000000     0.952550000000     0.154550000000     0          
O        O      0.327550000000     0.797450000000     0.154550000000     0          
O        O      0.172450000000     0.797450000000     0.095450000000     0          
O        O      0.077550000000     0.952550000000     0.095450000000     0          
O        O      0.000000000000     0.750000000000     0.375000000000     0          
O        O      0.077550000000     0.797450000000     0.345450000000     0          
O        O      0.077500000000     0.750000000000     0.434200000000     0          
O        O      0.125000000000     0.875000000000     0.315875000000     0          
O        O      0.125000000000     0.797475000000     0.256700000000     0          
T        Si     0.058050000000     0.750000000000     0.375025000000     0          
T        Si     0.125000000000     0.816975000000     0.315850000000     0          
T        Si     0.125000000000     0.750000000000     0.470450000000     0          
O        O      0.250000000000     0.750000000000     0.375000000000     0          
O        O      0.172450000000     0.952550000000     0.345450000000     0          
O        O      0.172500000000     0.750000000000     0.434200000000     0          
O        O      0.125000000000     0.952525000000     0.256700000000     0          
T        Si     0.191950000000     0.750000000000     0.375025000000     0          
T        Si     0.125000000000     0.933025000000     0.315850000000     0          
O        O      0.327550000000     0.952550000000     0.404550000000     0          
O        O      0.327500000000     0.750000000000     0.315800000000     0          
O        O      0.375000000000     0.875000000000     0.434125000000     0          
O        O      0.375000000000     0.952525000000     0.493300000000     0          
T        Si     0.308050000000     0.750000000000     0.374975000000     0          
T        Si     0.375000000000     0.933025000000     0.434150000000     0          
T        Si     0.375000000000     0.750000000000     0.279550000000     0          
O        O      0.422450000000     0.797450000000     0.404550000000     0          
O        O      0.422500000000     0.750000000000     0.315800000000     0          
O        O      0.375000000000     0.797475000000     0.493300000000     0          
T        Si     0.441950000000     0.750000000000     0.374975000000     0          
T        Si     0.375000000000     0.816975000000     0.434150000000     0          
O        O      0.422450000000     0.952550000000     0.404550000000     0          
O        O      0.327550000000     0.797450000000     0.404550000000     0          
O        O      0.172450000000     0.797450000000     0.345450000000     0          
O        O      0.077550000000     0.952550000000     0.345450000000     0          
O        O      0.000000000000     0.750000000000     0.625000000000     0          
O        O      0.077550000000     0.797450000000     0.595450000000     0          
O        O      0.077500000000     0.750000000000     0.684200000000     0          
O        O      0.125000000000     0.875000000000     0.565875000000     0          
O        O      0.125000000000     0.797475000000     0.506700000000     0          
T        Si     0.058050000000     0.750000000000     0.625025000000     0          
T        Si     0.125000000000     0.816975000000     0.565850000000     0          
T        Si     0.125000000000     0.750000000000     0.720450000000     0          
O        O      0.250000000000     0.750000000000     0.625000000000     0          
O        O      0.172450000000     0.952550000000     0.595450000000     0          
O        O      0.172500000000     0.750000000000     0.684200000000     0          
O        O      0.125000000000     0.952525000000     0.506700000000     0          
T        Si     0.191950000000     0.750000000000     0.625025000000     0          
T        Si     0.125000000000     0.933025000000     0.565850000000     0          
O        O      0.327550000000     0.952550000000     0.654550000000     0          
O        O      0.327500000000     0.750000000000     0.565800000000     0          
O        O      0.375000000000     0.875000000000     0.684125000000     0          
O        O      0.375000000000     0.952525000000     0.743300000000     0          
T        Si     0.308050000000     0.750000000000     0.624975000000     0          
T        Si     0.375000000000     0.933025000000     0.684150000000     0          
T        Si     0.375000000000     0.750000000000     0.529550000000     0          
O        O      0.422450000000     0.797450000000     0.654550000000     0          
O        O      0.422500000000     0.750000000000     0.565800000000     0          
O        O      0.375000000000     0.797475000000     0.743300000000     0          
T        Si     0.441950000000     0.750000000000     0.624975000000     0          
T        Si     0.375000000000     0.816975000000     0.684150000000     0          
O        O      0.422450000000     0.952550000000     0.654550000000     0          
O        O      0.327550000000     0.797450000000     0.654550000000     0          
O        O      0.172450000000     0.797450000000     0.595450000000     0          
O        O      0.077550000000     0.952550000000     0.595450000000     0          
O        O      0.000000000000     0.750000000000     0.875000000000     0          
O        O      0.077550000000     0.797450000000     0.845450000000     0          
O        O      0.077500000000     0.750000000000     0.934200000000     0          
O        O      0.125000000000     0.875000000000     0.815875000000     0          
O        O      0.125000000000     0.797475000000     0.756700000000     0          
T        Si     0.058050000000     0.750000000000     0.875025000000     0          
T        Si     0.125000000000     0.816975000000     0.815850000000     0          
T        Si     0.125000000000     0.750000000000     0.970450000000     0          
O        O      0.250000000000     0.750000000000     0.875000000000     0          
O        O      0.172450000000     0.952550000000     0.845450000000     0          
O        O      0.172500000000     0.750000000000     0.934200000000     0          
O        O      0.125000000000     0.952525000000     0.756700000000     0          
T        Si     0.191950000000     0.750000000000     0.875025000000     0          
T        Si     0.125000000000     0.933025000000     0.815850000000     0          
O        O      0.327550000000     0.952550000000     0.904550000000     0          
O        O      0.327500000000     0.750000000000     0.815800000000     0          
O        O      0.375000000000     0.875000000000     0.934125000000     0          
O        O      0.375000000000     0.952525000000     0.993300000000     0          
T        Si     0.308050000000     0.750000000000     0.874975000000     0          
T        Si     0.375000000000     0.933025000000     0.934150000000     0          
T        Si     0.375000000000     0.750000000000     0.779550000000     0          
O        O      0.422450000000     0.797450000000     0.904550000000     0          
O        O      0.422500000000     0.750000000000     0.815800000000     0          
O        O      0.375000000000     0.797475000000     0.993300000000     0          
T        Si     0.441950000000     0.750000000000     0.874975000000     0          
T        Si     0.375000000000     0.816975000000     0.934150000000     0          
O        O      0.422450000000     0.952550000000     0.904550000000     0          
O        O      0.327550000000     0.797450000000     0.904550000000     0          
O        O      0.172450000000     0.797450000000     0.845450000000     0          
O        O      0.077550000000     0.952550000000     0.845450000000     0          
O        O      0.500000000000     0.000000000000     0.125000000000     0          
O        O      0.577550000000     0.047450000000     0.095450000000     0          
O        O      0.577500000000     0.000000000000     0.184200000000     0          
O        O      0.625000000000     0.125000000000     0.065875000000     0          
O        O      0.625000000000     0.047475000000     0.006700000000     0          
T        Si     0.558050000000     0.000000000000     0.125025000000     0          
T        Si     0.625000000000     0.066975000000     0.065850000000     0          
T        Si     0.625000000000     0.000000000000     0.220450000000     0          
O        O      0.750000000000     0.000000000000     0.125000000000     0          
O        O      0.672450000000     0.202550000000     0.095450000000     0          
O        O      0.672500000000     0.000000000000     0.184200000000     0          
O        O      0.625000000000     0.202525000000     0.006700000000     0          
T        Si     0.691950000000     0.000000000000     0.125025000000     0          
T        Si     0.625000000000     0.183025000000     0.065850000000     0          
O        O      0.827550000000     0.202550000000     0.154550000000     0          
O        O      0.827500000000     0.000000000000     0.065800000000     0          
O        O      0.875000000000     0.125000000000     0.184125000000     0          
O        O      0.875000000000     0.202525000000     0.243300000000     0          
T        Si     0.808050000000     0.000000000000     0.124975000000     0          
T        Si     0.875000000000     0.183025000000     0.184150000000     0          
T        Si     0.875000000000     0.000000000000     0.029550000000     0          
O        O      0.922450000000     0.047450000000     0.154550000000     0          
O        O      0.922500000000     0.000000000000     0.065800000000     0          
O        O      0.875000000000     0.047475000000     0.243300000000     0          
T        Si     0.941950000000     0.000000000000     0.124975000000     0          
T        Si     0.875000000000     0.066975000000     0.184150000000     0          
O        O      0.922450000000     0.202550000000     0.154550000000     0          
O        O      0.827550000000     0.047450000000     0.154550000000     0          
O        O      0.672450000000     0.047450000000     0.095450000000     0          
O        O      0.577550000000     0.202550000000     0.095450000000     0          
O        O      0.500000000000     0.000000000000     0.375000000000     0          
O        O      0.577550000000     0.047450000000     0.345450000000     0          
O        O      0.577500000000     0.000000000000     0.434200000000     0          
O        O      0.625000000000     0.125000000000     0.315875000000     0          
O        O      0.625000000000     0.047475000000     0.256700000000     0          
T        Si     0.558050000000     0.000000000000     0.375025000000     0          
T        Si     0.625000000000     0.066975000000     0.315850000000     0          
T        Si     0.625000000000     0.000000000000     0.470450000000     0          
O        O      0.750000000000     0.000000000000     0.375000000000     0          
O        O      0.672450000000     0.202550000000     0.345450000000     0          
O        O      0.672500000000     0.000000000000     0.434200000000     0          
O        O      0.625000000000     0.202525000000     0.256700000000     0          
T        Si     0.691950000000     0.000000000000     0.375025000000     0          
T        Si     0.625000000000     0.183025000000     0.315850000000     0          
O        O      0.827550000000     0.202550000000     0.404550000000     0          
O        O      0.827500000000     0.000000000000     0.315800000000     0          
O        O      0.875000000000     0.125000000000     0.434125000000     0          
O        O      0.875000000000     0.202525000000     0.493300000000     0          
T        Si     0.808050000000     0.000000000000     0.374975000000     0          
T        Si     0.875000000000     0.183025000000     0.434150000000     0          
T        Si     0.875000000000     0.000000000000     0.279550000000     0          
O        O      0.922450000000     0.047450000000     0.404550000000     0          
O        O      0.922500000000     0.000000000000     0.315800000000     0          
O        O      0.875000000000     0.047475000000     0.493300000000     0          
T        Si     0.941950000000     0.000000000000     0.374975000000     0          
T        Si     0.875000000000     0.066975000000     0.434150000000     0          
O        O      0.922450000000     0.202550000000     0.404550000000     0          
O        O      0.827550000000     0.047450000000     0.404550000000     0          
O        O      0.672450000000     0.047450000000     0.345450000000     0          
O        O      0.577550000000     0.202550000000     0.345450000000     0          
O        O      0.500000000000     0.000000000000     0.625000000000     0          
O        O      0.577550000000     0.047450000000     0.595450000000     0          
O        O      0.577500000000     0.000000000000     0.684200000000     0          
O        O      0.625000000000     0.125000000000     0.565875000000     0          
O        O      0.625000000000     0.047475000000     0.506700000000     0          
T        Si     0.558050000000     0.000000000000     0.625025000000     0          
T        Si     0.625000000000     0.066975000000     0.565850000000     0          
T        Si     0.625000000000     0.000000000000     0.720450000000     0          
O        O      0.750000000000     0.000000000000     0.625000000000     0          
O        O      0.672450000000     0.202550000000     0.595450000000     0          
O        O      0.672500000000     0.000000000000     0.684200000000     0          
O        O      0.625000000000     0.202525000000     0.506700000000     0          
T        Si     0.691950000000     0.000000000000     0.625025000000     0          
T        Si     0.625000000000     0.183025000000     0.565850000000     0          
O        O      0.827550000000     0.202550000000     0.654550000000     0          
O        O      0.827500000000     0.000000000000     0.565800000000     0          
O        O      0.875000000000     0.125000000000     0.684125000000     0          
O        O      0.875000000000     0.202525000000     0.743300000000     0          
T        Si     0.808050000000     0.000000000000     0.624975000000     0          
T        Si     0.875000000000     0.183025000000     0.684150000000     0          
T        Si     0.875000000000     0.000000000000     0.529550000000     0          
O        O      0.922450000000     0.047450000000     0.654550000000     0          
O        O      0.922500000000     0.000000000000     0.565800000000     0          
O        O      0.875000000000     0.047475000000     0.743300000000     0          
T        Si     0.941950000000     0.000000000000     0.624975000000     0          
T        Si     0.875000000000     0.066975000000     0.684150000000     0          
O        O      0.922450000000     0.202550000000     0.654550000000     0          
O        O      0.827550000000     0.047450000000     0.654550000000     0          
O        O      0.672450000000     0.047450000000     0.595450000000     0          
O        O      0.577550000000     0.202550000000     0.595450000000     0          
O        O      0.500000000000     0.000000000000     0.875000000000     0          
O        O      0.577550000000     0.047450000000     0.845450000000     0          
O        O      0.577500000000     0.000000000000     0.934200000000     0          
O        O      0.625000000000     0.125000000000     0.815875000000     0          
O        O      0.625000000000     0.047475000000     0.756700000000     0          
T        Si     0.558050000000     0.000000000000     0.875025000000     0          
T        Si     0.625000000000     0.066975000000     0.815850000000     0          
T        Si     0.625000000000     0.000000000000     0.970450000000     0          
O        O      0.750000000000     0.000000000000     0.875000000000     0          
O        O      0.672450000000     0.202550000000     0.845450000000     0          
O        O      0.672500000000     0.000000000000     0.934200000000     0          
O        O      0.625000000000     0.202525000000     0.756700000000     0          
T        Si     0.691950000000     0.000000000000     0.875025000000     0          
T        Si     0.625000000000     0.183025000000     0.815850000000     0          
O        O      0.827550000000     0.202550000000     0.904550000000     0          
O        O      0.827500000000     0.000000000000     0.815800000000     0          
O        O      0.875000000000     0.125000000000     0.934125000000     0          
O        O      0.875000000000     0.202525000000     0.993300000000     0          
T        Si     0.808050000000     0.000000000000     0.874975000000     0          
T        Si     0.875000000000     0.183025000000     0.934150000000     0          
T        Si     0.875000000000     0.000000000000     0.779550000000     0          
O        O      0.922450000000     0.047450000000     0.904550000000     0          
O        O      0.922500000000     0.000000000000     0.815800000000     0          
O        O      0.875000000000     0.047475000000     0.993300000000     0          
T        Si     0.941950000000     0.000000000000     0.874975000000     0          
T        Si     0.875000000000     0.066975000000     0.934150000000     0          
O        O      0.922450000000     0.202550000000     0.904550000000     0          
O        O      0.827550000000     0.047450000000     0.904550000000     0          
O        O      0.672450000000     0.047450000000     0.845450000000     0          
O        O      0.577550000000     0.202550000000     0.845450000000     0          
O        O      0.500000000000     0.250000000000     0.125000000000     0          
O        O      0.577550000000     0.297450000000     0.095450000000     0          
O        O      0.577500000000     0.250000000000     0.184200000000     0          
O        O      0.625000000000     0.375000000000     0.065875000000     0          
O        O      0.625000000000     0.297475000000     0.006700000000     0          
T        Si     0.558050000000     0.250000000000     0.125025000000     0          
T        Si     0.625000000000     0.316975000000     0.065850000000     0          
T        Si     0.625000000000     0.250000000000     0.220450000000     0          
O        O      0.750000000000     0.250000000000     0.125000000000     0          
O        O      0.672450000000     0.452550000000     0.095450000000     0          
O        O      0.672500000000     0.250000000000     0.184200000000     0          
O        O      0.625000000000     0.452525000000     0.006700000000     0          
T        Si     0.691950000000     0.250000000000     0.125025000000     0          
T        Si     0.625000000000     0.433025000000     0.065850000000     0          
O        O      0.827550000000     0.452550000000     0.154550000000     0          
O        O      0.827500000000     0.250000000000     0.065800000000     0          
O        O      0.875000000000     0.375000000000     0.184125000000     0          
O        O      0.875000000000     0.452525000000     0.243300000000     0          
T        Si     0.808050000000     0.250000000000     0.124975000000     0          
T        Si     0.875000000000     0.433025000000     0.184150000000     0          
T        Si     0.875000000000     0.250000000000     0.029550000000     0          
O        O      0.922450000000     0.297450000000     0.154550000000     0          
O        O      0.922500000000     0.250000000000     0.065800000000     0          
O        O      0.875000000000     0.297475000000     0.243300000000     0          
T        Si     0.941950000000     0.250000000000     0.124975000000     0          
T        Si     0.875000000000     0.316975000000     0.184150000000     0          
O        O      0.922450000000     0.452550000000     0.154550000000     0          
O        O      0.827550000000     0.297450000000     0.154550000000     0          
O        O      0.672450000000     0.297450000000     0.095450000000     0          
O        O      0.577550000000     0.452550000000     0.095450000000     0          
O        O      0.500000000000     0.250000000000     0.375000000000     0          
O        O      0.577550000000     0.297450000000     0.345450000000     0          
O        O      0.577500000000     0.250000000000     0.434200000000     0          
O        O      0.625000000000     0.375000000000     0.315875000000     0          
O        O      0.625000000000     0.297475000000     0.256700000000     0          
T        Si     0.558050000000     0.250000000000     0.375025000000     0          
T        Si     0.625000000000     0.316975000000     0.315850000000     0          
T        Si     0.625000000000     0.250000000000     0.470450000000     0          
O        O      0.750000000000     0.250000000000     0.375000000000     0          
O        O      0.672450000000     0.452550000000     0.345450000000     0          
O        O      0.672500000000     0.250000000000     0.434200000000     0          
O        O      0.625000000000     0.452525000000     0.256700000000     0          
T        Si     0.691950000000     0.250000000000     0.375025000000     0          
T        Si     0.625000000000     0.433025000000     0.315850000000     0          
O        O      0.827550000000     0.452550000000     0.404550000000     0          
O        O      0.827500000000     0.250000000000     0.315800000000     0          
O        O      0.875000000000     0.375000000000     0.434125000000     0          
O        O      0.875000000000     0.452525000000     0.493300000000     0          
T        Si     0.808050000000     0.250000000000     0.374975000000     0          
T        Si     0.875000000000     0.433025000000     0.434150000000     0          
T        Si     0.875000000000     0.250000000000     0.279550000000     0          
O        O      0.922450000000     0.297450000000     0.404550000000     0          
O        O      0.922500000000     0.250000000000     0.315800000000     0          
O        O      0.875000000000     0.297475000000     0.493300000000     0          
T        Si     0.941950000000     0.250000000000     0.374975000000     0          
T        Si     0.875000000000     0.316975000000     0.434150000000     0          
O        O      0.922450000000     0.452550000000     0.404550000000     0          
O        O      0.827550000000     0.297450000000     0.404550000000     0          
O        O      0.672450000000     0.297450000000     0.345450000000     0          
O        O      0.577550000000     0.452550000000     0.345450000000     0          
O        O      0.500000000000     0.250000000000     0.625000000000     0          
O        O      0.577550000000     0.297450000000     0.595450000000     0          
O        O      0.577500000000     0.250000000000     0.684200000000     0          
O        O      0.625000000000     0.375000000000     0.565875000000     0          
O        O      0.625000000000     0.297475000000     0.506700000000     0          
T        Si     0.558050000000     0.250000000000     0.625025000000     0          
T        Si     0.625000000000     0.316975000000     0.565850000000     0          
T        Si     0.625000000000     0.250000000000     0.720450000000     0          
O        O      0.750000000000     0.250000000000     0.625000000000     0          
O        O      0.672450000000     0.452550000000     0.595450000000     0          
O        O      0.672500000000     0.250000000000     0.684200000000     0          
O        O      0.625000000000     0.452525000000     0.506700000000     0          
T        Si     0.691950000000     0.250000000000     0.625025000000     0          
T        Si     0.625000000000     0.433025000000     0.565850000000     0          
O        O      0.827550000000     0.452550000000     0.654550000000     0          
O        O      0.827500000000     0.250000000000     0.565800000000     0          
O        O      0.875000000000     0.375000000000     0.684125000000     0          
O        O      0.875000000000     0.452525000000     0.743300000000     0          
T        Si     0.808050000000     0.250000000000     0.624975000000     0          
T        Si     0.875000000000     0.433025000000     0.684150000000     0          
T        Si     0.875000000000     0.250000000000     0.529550000000     0          
O        O      0.922450000000     0.297450000000     0.654550000000     0          
O        O      0.922500000000     0.250000000000     0.565800000000     0          
O        O      0.875000000000     0.297475000000     0.743300000000     0          
T        Si     0.941950000000     0.250000000000     0.624975000000     0          
T        Si     0.875000000000     0.316975000000     0.684150000000     0          
O        O      0.922450000000     0.452550000000     0.654550000000     0          
O        O      0.827550000000     0.297450000000     0.654550000000     0          
O        O      0.672450000000     0.297450000000     0.595450000000     0          
O        O      0.577550000000     0.452550000000     0.595450000000     0          
O        O      0.500000000000     0.250000000000     0.875000000000     0          
O        O      0.577550000000     0.297450000000     0.845450000000     0          
O        O      0.577500000000     0.250000000000     0.934200000000     0          
O        O      0.625000000000     0.375000000000     0.815875000000     0          
O        O      0.625000000000     0.297475000000     0.756700000000     0          
T        Si     0.558050000000     0.250000000000     0.875025000000     0          
T        Si     0.625000000000     0.316975000000     0.815850000000     0          
T        Si     0.625000000000     0.250000000000     0.970450000000     0          
O        O      0.750000000000     0.250000000000     0.875000000000     0          
O        O      0.672450000000     0.452550000000     0.845450000000     0          
O        O      0.672500000000     0.250000000000     0.934200000000     0          
O        O      0.625000000000     0.452525000000     0.756700000000     0          
T        Si     0.691950000000     0.250000000000     0.875025000000     0          
T        Si     0.625000000000     0.433025000000     0.815850000000     0          
O        O      0.827550000000     0.452550000000     0.904550000000     0          
O        O      0.827500000000     0.250000000000     0.815800000000     0          
O        O      0.875000000000     0.375000000000     0.934125000000     0          
O        O      0.875000000000     0.452525000000     0.993300000000     0          
T        Si     0.808050000000     0.250000000000     0.874975000000     0          
T        Si     0.875000000000     0.433025000000     0.934150000000     0          
T        Si     0.875000000000     0.250000000000     0.779550000000     0          
O        O      0.922450000000     0.297450000000     0.904550000000     0          
O        O      0.922500000000     0.250000000000     0.815800000000     0          
O        O      0.875000000000     0.297475000000     0.993300000000     0          
T        Si     0.941950000000     0.250000000000     0.874975000000     0          
T        Si     0.875000000000     0.316975000000     0.934150000000     0          
O        O      0.922450000000     0.452550000000     0.904550000000     0          
O        O      0.827550000000     0.297450000000     0.904550000000     0          
O        O      0.672450000000     0.297450000000     0.845450000000     0          
O        O      0.577550000000     0.452550000000     0.845450000000     0          
O        O      0.500000000000     0.500000000000     0.125000000000     0          
O        O      0.577550000000     0.547450000000     0.095450000000     0          
O        O      0.577500000000     0.500000000000     0.184200000000     0          
O        O      0.625000000000     0.625000000000     0.065875000000     0          
O        O      0.625000000000     0.547475000000     0.006700000000     0          
T        Si     0.558050000000     0.500000000000     0.125025000000     0          
T        Si     0.625000000000     0.566975000000     0.065850000000     0          
T        Si     0.625000000000     0.500000000000     0.220450000000     0          
O        O      0.750000000000     0.500000000000     0.125000000000     0          
O        O      0.672450000000     0.702550000000     0.095450000000     0          
O        O      0.672500000000     0.500000000000     0.184200000000     0          
O        O      0.625000000000     0.702525000000     0.006700000000     0          
T        Si     0.691950000000     0.500000000000     0.125025000000     0          
T        Si     0.625000000000     0.683025000000     0.065850000000     0          
O        O      0.827550000000     0.702550000000     0.154550000000     0          
O        O      0.827500000000     0.500000000000     0.065800000000     0          
O        O      0.875000000000     0.625000000000     0.184125000000     0          
O        O      0.875000000000     0.702525000000     0.243300000000     0          
T        Si     0.808050000000     0.500000000000     0.124975000000     0          
T        Si     0.875000000000     0.683025000000     0.184150000000     0          
T        Si     0.875000000000     0.500000000000     0.029550000000     0          
O        O      0.922450000000     0.547450000000     0.154550000000     0          
O        O      0.922500000000     0.500000000000     0.065800000000     0          
O        O      0.875000000000     0.547475000000     0.243300000000     0          
T        Si     0.941950000000     0.500000000000     0.124975000000     0          
T        Si     0.875000000000     0.566975000000     0.184150000000     0          
O        O      0.922450000000     0.702550000000     0.154550000000     0          
O        O      0.827550000000     0.547450000000     0.154550000000     0          
O        O      0.672450000000     0.547450000000     0.095450000000     0          
O        O      0.577550000000     0.702550000000     0.095450000000     0          
O        O      0.500000000000     0.500000000000     0.375000000000     0          
O        O      0.577550000000     0.547450000000     0.345450000000     0          
O        O      0.577500000000     0.500000000000     0.434200000000     0          
O        O      0.625000000000     0.625000000000     0.315875000000     0          
O        O      0.625000000000     0.547475000000     0.256700000000     0          
T        Si     0.558050000000     0.500000000000     0.375025000000     0          
T        Si     0.625000000000     0.566975000000     0.315850000000     0          
T        Si     0.625000000000     0.500000000000     0.470450000000     0          
O        O      0.750000000000     0.500000000000     0.375000000000     0          
O        O      0.672450000000     0.702550000000     0.345450000000     0          
O        O      0.672500000000     0.500000000000     0.434200000000     0          
O        O      0.625000000000     0.702525000000     0.256700000000     0          
T        Si     0.691950000000     0.500000000000     0.375025000000     0          
T        Si     0.625000000000     0.683025000000     0.315850000000     0          
O        O      0.827550000000     0.702550000000     0.404550000000     0          
O        O      0.827500000000     0.500000000000     0.315800000000     0          
O        O      0.875000000000     0.625000000000     0.434125000000     0          
O        O      0.875000000000     0.702525000000     0.493300000000     0          
T        Si     0.808050000000     0.500000000000     0.374975000000     0          
T        Si     0.875000000000     0.683025000000     0.434150000000     0          
T        Si     0.875000000000     0.500000000000     0.279550000000     0          
O        O      0.922450000000     0.547450000000     0.404550000000     0          
O        O      0.922500000000     0.500000000000     0.315800000000     0          
O        O      0.875000000000     0.547475000000     0.493300000000     0          
T        Si     0.941950000000     0.500000000000     0.374975000000     0          
T        Si     0.875000000000     0.566975000000     0.434150000000     0          
O        O      0.922450000000     0.702550000000     0.404550000000     0          
O        O      0.827550000000     0.547450000000     0.404550000000     0          
O        O      0.672450000000     0.547450000000     0.345450000000     0          
O        O      0.577550000000     0.702550000000     0.345450000000     0          
O        O      0.500000000000     0.500000000000     0.625000000000     0          
O        O      0.577550000000     0.547450000000     0.595450000000     0          
O        O      0.577500000000     0.500000000000     0.684200000000     0          
O        O      0.625000000000     0.625000000000     0.565875000000     0          
O        O      0.625000000000     0.547475000000     0.506700000000     0          
T        Si     0.558050000000     0.500000000000     0.625025000000     0          
T        Si     0.625000000000     0.566975000000     0.565850000000     0          
T        Si     0.625000000000     0.500000000000     0.720450000000     0          
O        O      0.750000000000     0.500000000000     0.625000000000     0          
O        O      0.672450000000     0.702550000000     0.595450000000     0          
O        O      0.672500000000     0.500000000000     0.684200000000     0          
O        O      0.625000000000     0.702525000000     0.506700000000     0          
T        Si     0.691950000000     0.500000000000     0.625025000000     0          
T        Si     0.625000000000     0.683025000000     0.565850000000     0          
O        O      0.827550000000     0.702550000000     0.654550000000     0          
O        O      0.827500000000     0.500000000000     0.565800000000     0          
O        O      0.875000000000     0.625000000000     0.684125000000     0          
O        O      0.875000000000     0.702525000000     0.743300000000     0          
T        Si     0.808050000000     0.500000000000     0.624975000000     0          
T        Si     0.875000000000     0.683025000000     0.684150000000     0          
T        Si     0.875000000000     0.500000000000     0.529550000000     0          
O        O      0.922450000000     0.547450000000     0.654550000000     0          
O        O      0.922500000000     0.500000000000     0.565800000000     0          
O        O      0.875000000000     0.547475000000     0.743300000000     0          
T        Si     0.941950000000     0.500000000000     0.624975000000     0          
T        Si     0.875000000000     0.566975000000     0.684150000000     0          
O        O      0.922450000000     0.702550000000     0.654550000000     0          
O        O      0.827550000000     0.547450000000     0.654550000000     0          
O        O      0.672450000000     0.547450000000     0.595450000000     0          
O        O      0.577550000000     0.702550000000     0.595450000000     0          
O        O      0.500000000000     0.500000000000     0.875000000000     0          
O        O      0.577550000000     0.547450000000     0.845450000000     0          
O        O      0.577500000000     0.500000000000     0.934200000000     0          
O        O      0.625000000000     0.625000000000     0.815875000000     0          
O        O      0.625000000000     0.547475000000     0.756700000000     0          
T        Si     0.558050000000     0.500000000000     0.875025000000     0          
T        Si     0.625000000000     0.566975000000     0.815850000000     0          
T        Si     0.625000000000     0.500000000000     0.970450000000     0          
O        O      0.750000000000     0.500000000000     0.875000000000     0          
O        O      0.672450000000     0.702550000000     0.845450000000     0          
O        O      0.672500000000     0.500000000000     0.934200000000     0          
O        O      0.625000000000     0.702525000000     0.756700000000     0          
T        Si     0.691950000000     0.500000000000     0.875025000000     0          
T        Si     0.625000000000     0.683025000000     0.815850000000     0          
O        O      0.827550000000     0.702550000000     0.904550000000     0          
O        O      0.827500000000     0.500000000000     0.815800000000     0          
O        O      0.875000000000     0.625000000000     0.934125000000     0          
O        O      0.875000000000     0.702525000000     0.993300000000     0          
T        Si     0.808050000000     0.500000000000     0.874975000000     0          
T        Si     0.875000000000     0.683025000000     0.934150000000     0          
T        Si     0.875000000000     0.500000000000     0.779550000000     0          
O        O      0.922450000000     0.547450000000     0.904550000000     0          
O        O      0.922500000000     0.500000000000     0.815800000000     0          
O        O      0.875000000000     0.547475000000     0.993300000000     0          
T        Si     0.941950000000     0.500000000000     0.874975000000     0          
T        Si     0.875000000000     0.566975000000     0.934150000000     0          
O        O      0.922450000000     0.702550000000     0.904550000000     0          
O        O      0.827550000000     0.547450000000     0.904550000000     0          
O        O      0.672450000000     0.547450000000     0.845450000000     0          
O        O      0.577550000000     0.702550000000     0.845450000000     0          
O        O      0.500000000000     0.750000000000     0.125000000000     0          
O        O      0.577550000000     0.797450000000     0.095450000000     0          
O        O      0.577500000000     0.750000000000     0.184200000000     0          
O        O      0.625000000000     0.875000000000     0.065875000000     0          
O        O      0.625000000000     0.797475000000     0.006700000000     0          
T        Si     0.558050000000     0.750000000000     0.125025000000     0          
T        Si     0.625000000000     0.816975000000     0.065850000000     0          
T        Si     0.625000000000     0.750000000000     0.220450000000     0          
O        O      0.750000000000     0.750000000000     0.125000000000     0          
O        O      0.672450000000     0.952550000000     0.095450000000     0          
O        O      0.672500000000     0.750000000000     0.184200000000     0          
O        O      0.625000000000     0.952525000000     0.006700000000     0          
T        Si     0.691950000000     0.750000000000     0.125025000000     0          
T        Si     0.625000000000     0.933025000000     0.065850000000     0          
O        O      0.827550000000     0.952550000000     0.154550000000     0          
O        O      0.827500000000     0.750000000000     0.065800000000     0          
O        O      0.875000000000     0.875000000000     0.184125000000     0          
O        O      0.875000000000     0.952525000000     0.243300000000     0          
T        Si     0.808050000000     0.750000000000     0.124975000000     0          
T        Si     0.875000000000     0.933025000000     0.184150000000     0          
T        Si     0.875000000000     0.750000000000     0.029550000000     0          
O        O      0.922450000000     0.797450000000     0.154550000000     0          
O        O      0.922500000000     0.750000000000     0.065800000000     0          
O        O      0.875000000000     0.797475000000     0.243300000000     0          
T        Si     0.941950000000     0.750000000000     0.124975000000     0          
T        Si     0.875000000000     0.816975000000     0.184150000000     0          
O        O      0.922450000000     0.952550000000     0.154550000000     0          
O        O      0.827550000000     0.797450000000     0.154550000000     0          
O        O      0.672450000000     0.797450000000     0.095450000000     0          
O        O      0.577550000000     0.952550000000     0.095450000000     0          
O        O      0.500000000000     0.750000000000     0.375000000000     0          
O        O      0.577550000000     0.797450000000     0.345450000000     0          
O        O      0.577500000000     0.750000000000     0.434200000000     0          
O        O      0.625000000000     0.875000000000     0.315875000000     0          
O        O      0.625000000000     0.797475000000     0.256700000000     0          
T        Si     0.558050000000     0.750000000000     0.375025000000     0          
T        Si     0.625000000000     0.816975000000     0.315850000000     0          
T        Si     0.625000000000     0.750000000000     0.470450000000     0          
O        O      0.750000000000     0.750000000000     0.375000000000     0          
O        O      0.672450000000     0.952550000000     0.345450000000     0          
O        O      0.672500000000     0.750000000000     0.434200000000     0          
O        O      0.625000000000     0.952525000000     0.256700000000     0          
T        Si     0.691950000000     0.750000000000     0.375025000000     0          
T        Si     0.625000000000     0.933025000000     0.315850000000     0          
O        O      0.827550000000     0.952550000000     0.404550000000     0          
O        O      0.827500000000     0.750000000000     0.315800000000     0          
O        O      0.875000000000     0.875000000000     0.434125000000     0          
O        O      0.875000000000     0.952525000000     0.493300000000     0          
T        Si     0.808050000000     0.750000000000     0.374975000000     0          
T        Si     0.875000000000     0.933025000000     0.434150000000     0          
T        Si     0.875000000000     0.750000000000     0.279550000000     0          
O        O      0.922450000000     0.797450000000     0.404550000000     0          
O        O      0.922500000000     0.750000000000     0.315800000000     0          
O        O      0.875000000000     0.797475000000     0.493300000000     0          
T        Si     0.941950000000     0.750000000000     0.374975000000     0          
T        Si     0.875000000000     0.816975000000     0.434150000000     0          
O        O      0.922450000000     0.952550000000     0.404550000000     0          
O        O      0.827550000000     0.797450000000     0.404550000000     0          
O        O      0.672450000000     0.797450000000     0.345450000000     0          
O        O      0.577550000000     0.952550000000     0.345450000000     0          
O        O      0.500000000000     0.750000000000     0.625000000000     0          
O        O      0.577550000000     0.797450000000     0.595450000000     0          
O        O      0.577500000000     0.750000000000     0.684200000000     0          
O        O      0.625000000000     0.875000000000     0.565875000000     0          
O        O      0.625000000000     0.797475000000     0.506700000000     0          
T        Si     0.558050000000     0.750000000000     0.625025000000     0          
T        Si     0.625000000000     0.816975000000     0.565850000000     0          
T        Si     0.625000000000     0.750000000000     0.720450000000     0          
O        O      0.750000000000     0.750000000000     0.625000000000     0          
O        O      0.672450000000     0.952550000000     0.595450000000     0          
O        O      0.672500000000     0.750000000000     0.684200000000     0          
O        O      0.625000000000     0.952525000000     0.506700000000     0          
T        Si     0.691950000000     0.750000000000     0.625025000000     0          
T        Si     0.625000000000     0.933025000000     0.565850000000     0          
O        O      0.827550000000     0.952550000000     0.654550000000     0          
O        O      0.827500000000     0.750000000000     0.565800000000     0          
O        O      0.875000000000     0.875000000000     0.684125000000     0          
O        O      0.875000000000     0.952525000000     0.743300000000     0          
T        Si     0.808050000000     0.750000000000     0.624975000000     0          
T        Si     0.875000000000     0.933025000000     0.684150000000     0          
T        Si     0.875000000000     0.750000000000     0.529550000000     0          
O        O      0.922450000000     0.797450000000     0.654550000000     0          
O        O      0.922500000000     0.750000000000     0.565800000000     0          
O        O      0.875000000000     0.797475000000     0.743300000000     0          
T        Si     0.941950000000     0.750000000000     0.624975000000     0          
T        Si     0.875000000000     0.816975000000     0.684150000000     0          
O        O      0.922450000000     0.952550000000     0.654550000000     0          
O        O      0.827550000000     0.797450000000     0.654550000000     0          
O        O      0.672450000000     0.797450000000     0.595450000000     0          
O        O      0.577550000000     0.952550000000     0.595450000000     0          
O        O      0.500000000000     0.750000000000     0.875000000000     0          
O        O      0.577550000000     0.797450000000     0.845450000000     0          
O        O      0.577500000000     0.750000000000     0.934200000000     0          
O        O      0.625000000000     0.875000000000     0.815875000000     0          
O        O      0.625000000000     0.797475000000     0.756700000000     0          
T        Si     0.558050000000     0.750000000000     0.875025000000     0          
T        Si     0.625000000000     0.816975000000     0.815850000000     0          
T        Si     0.625000000000     0.750000000000     0.970450000000     0          
O        O      0.750000000000     0.750000000000     0.875000000000     0          
O        O      0.672450000000     0.952550000000     0.845450000000     0          
O        O      0.672500000000     0.750000000000     0.934200000000     0          
O        O      0.625000000000     0.952525000000     0.756700000000     0          
T        Si     0.691950000000     0.750000000000     0.875025000000     0          
T        Si     0.625000000000     0.933025000000     0.815850000000     0          
O        O      0.827550000000     0.952550000000     0.904550000000     0          
O        O      0.827500000000     0.750000000000     0.815800000000     0          
O        O      0.875000000000     0.875000000000     0.934125000000     0          
O        O      0.875000000000     0.952525000000     0.993300000000     0          
T        Si     0.808050000000     0.750000000000     0.874975000000     0          
T        Si     0.875000000000     0.933025000000     0.934150000000     0          
T        Si     0.875000000000     0.750000000000     0.779550000000     0          
O        O      0.922450000000     0.797450000000     0.904550000000     0          
O        O      0.922500000000     0.750000000000     0.815800000000     0          
O        O      0.875000000000     0.797475000000     0.993300000000     0          
T        Si     0.941950000000     0.750000000000     0.874975000000     0          
T        Si     0.875000000000     0.816975000000     0.934150000000     0          
O        O      0.922450000000     0.952550000000     0.904550000000     0          
O        O      0.827550000000     0.797450000000     0.904550000000     0          
O        O      0.672450000000     0.797450000000     0.845450000000     0          
O        O      0.577550000000     0.952550000000     0.845450000000     0          


