data_zeolite

_audit_creation_method RASPA-1.0
_audit_creation_date 2021-6-8
_audit_author_name ''

_cell_length_a    13.587
_cell_length_b    13.587
_cell_length_c    7.557
_cell_angle_alpha 90
_cell_angle_beta  90
_cell_angle_gamma 120
_cell_volume      43494

_symmetry_cell_setting          hexagonal
_symmetry_space_group_name_Hall 'P 1'
_symmetry_space_group_name_H-M  'P 1'
_symmetry_Int_Tables_number     1

_symmetry_equiv_pos_as_xyz 'x,y,z'

loop_
_atom_site_label
_atom_site_type_symbol
_atom_site_fract_x
_atom_site_fract_y
_atom_site_fract_z
_atom_site_charge
T        Si     0.087100000000     0.043533333333     0.051075000000     0          
T        Si     0.140133333333     0.096300000000     0.125000000000     0          
T        Si     0.222233333333     0.111100000000     0.125000000000     0          
T        Si     0.289766666667     0.246233333333     0.198925000000     0          
T        Si     0.289500000000     0.193200000000     0.125000000000     0          
T        Si     0.289800000000     0.043566666667     0.051075000000     0          
T        Si     0.237033333333     0.043833333333     0.125000000000     0          
T        Si     0.087100000000     0.043533333333     0.198925000000     0          
T        Si     0.289766666667     0.246233333333     0.051075000000     0          
T        Si     0.289800000000     0.043566666667     0.198925000000     0          
T        Si     0.043533333333     0.087100000000     0.051075000000     0          
T        Si     0.096300000000     0.140133333333     0.125000000000     0          
T        Si     0.111100000000     0.222233333333     0.125000000000     0          
T        Si     0.043566666667     0.289800000000     0.198925000000     0          
T        Si     0.043833333333     0.237033333333     0.125000000000     0          
T        Si     0.246233333333     0.289766666667     0.051075000000     0          
T        Si     0.193200000000     0.289500000000     0.125000000000     0          
T        Si     0.043533333333     0.087100000000     0.198925000000     0          
T        Si     0.043566666667     0.289800000000     0.051075000000     0          
T        Si     0.246233333333     0.289766666667     0.198925000000     0          
T        Si     0.087100000000     0.043533333333     0.301075000000     0          
T        Si     0.140133333333     0.096300000000     0.375000000000     0          
T        Si     0.222233333333     0.111100000000     0.375000000000     0          
T        Si     0.289766666667     0.246233333333     0.448925000000     0          
T        Si     0.289500000000     0.193200000000     0.375000000000     0          
T        Si     0.289800000000     0.043566666667     0.301075000000     0          
T        Si     0.237033333333     0.043833333333     0.375000000000     0          
T        Si     0.087100000000     0.043533333333     0.448925000000     0          
T        Si     0.289766666667     0.246233333333     0.301075000000     0          
T        Si     0.289800000000     0.043566666667     0.448925000000     0          
T        Si     0.043533333333     0.087100000000     0.301075000000     0          
T        Si     0.096300000000     0.140133333333     0.375000000000     0          
T        Si     0.111100000000     0.222233333333     0.375000000000     0          
T        Si     0.043566666667     0.289800000000     0.448925000000     0          
T        Si     0.043833333333     0.237033333333     0.375000000000     0          
T        Si     0.246233333333     0.289766666667     0.301075000000     0          
T        Si     0.193200000000     0.289500000000     0.375000000000     0          
T        Si     0.043533333333     0.087100000000     0.448925000000     0          
T        Si     0.043566666667     0.289800000000     0.301075000000     0          
T        Si     0.246233333333     0.289766666667     0.448925000000     0          
T        Si     0.087100000000     0.043533333333     0.551075000000     0          
T        Si     0.140133333333     0.096300000000     0.625000000000     0          
T        Si     0.222233333333     0.111100000000     0.625000000000     0          
T        Si     0.289766666667     0.246233333333     0.698925000000     0          
T        Si     0.289500000000     0.193200000000     0.625000000000     0          
T        Si     0.289800000000     0.043566666667     0.551075000000     0          
T        Si     0.237033333333     0.043833333333     0.625000000000     0          
T        Si     0.087100000000     0.043533333333     0.698925000000     0          
T        Si     0.289766666667     0.246233333333     0.551075000000     0          
T        Si     0.289800000000     0.043566666667     0.698925000000     0          
T        Si     0.043533333333     0.087100000000     0.551075000000     0          
T        Si     0.096300000000     0.140133333333     0.625000000000     0          
T        Si     0.111100000000     0.222233333333     0.625000000000     0          
T        Si     0.043566666667     0.289800000000     0.698925000000     0          
T        Si     0.043833333333     0.237033333333     0.625000000000     0          
T        Si     0.246233333333     0.289766666667     0.551075000000     0          
T        Si     0.193200000000     0.289500000000     0.625000000000     0          
T        Si     0.043533333333     0.087100000000     0.698925000000     0          
T        Si     0.043566666667     0.289800000000     0.551075000000     0          
T        Si     0.246233333333     0.289766666667     0.698925000000     0          
T        Si     0.087100000000     0.043533333333     0.801075000000     0          
T        Si     0.140133333333     0.096300000000     0.875000000000     0          
T        Si     0.222233333333     0.111100000000     0.875000000000     0          
T        Si     0.289766666667     0.246233333333     0.948925000000     0          
T        Si     0.289500000000     0.193200000000     0.875000000000     0          
T        Si     0.289800000000     0.043566666667     0.801075000000     0          
T        Si     0.237033333333     0.043833333333     0.875000000000     0          
T        Si     0.087100000000     0.043533333333     0.948925000000     0          
T        Si     0.289766666667     0.246233333333     0.801075000000     0          
T        Si     0.289800000000     0.043566666667     0.948925000000     0          
T        Si     0.043533333333     0.087100000000     0.801075000000     0          
T        Si     0.096300000000     0.140133333333     0.875000000000     0          
T        Si     0.111100000000     0.222233333333     0.875000000000     0          
T        Si     0.043566666667     0.289800000000     0.948925000000     0          
T        Si     0.043833333333     0.237033333333     0.875000000000     0          
T        Si     0.246233333333     0.289766666667     0.801075000000     0          
T        Si     0.193200000000     0.289500000000     0.875000000000     0          
T        Si     0.043533333333     0.087100000000     0.948925000000     0          
T        Si     0.043566666667     0.289800000000     0.801075000000     0          
T        Si     0.246233333333     0.289766666667     0.948925000000     0          
T        Si     0.087100000000     0.376866666667     0.051075000000     0          
T        Si     0.140133333333     0.429633333333     0.125000000000     0          
T        Si     0.222233333333     0.444433333333     0.125000000000     0          
T        Si     0.289766666667     0.579566666667     0.198925000000     0          
T        Si     0.289500000000     0.526533333333     0.125000000000     0          
T        Si     0.289800000000     0.376900000000     0.051075000000     0          
T        Si     0.237033333333     0.377166666667     0.125000000000     0          
T        Si     0.087100000000     0.376866666667     0.198925000000     0          
T        Si     0.289766666667     0.579566666667     0.051075000000     0          
T        Si     0.289800000000     0.376900000000     0.198925000000     0          
T        Si     0.043533333333     0.420433333333     0.051075000000     0          
T        Si     0.096300000000     0.473466666667     0.125000000000     0          
T        Si     0.111100000000     0.555566666667     0.125000000000     0          
T        Si     0.043566666667     0.623133333333     0.198925000000     0          
T        Si     0.043833333333     0.570366666667     0.125000000000     0          
T        Si     0.246233333333     0.623100000000     0.051075000000     0          
T        Si     0.193200000000     0.622833333333     0.125000000000     0          
T        Si     0.043533333333     0.420433333333     0.198925000000     0          
T        Si     0.043566666667     0.623133333333     0.051075000000     0          
T        Si     0.246233333333     0.623100000000     0.198925000000     0          
T        Si     0.087100000000     0.376866666667     0.301075000000     0          
T        Si     0.140133333333     0.429633333333     0.375000000000     0          
T        Si     0.222233333333     0.444433333333     0.375000000000     0          
T        Si     0.289766666667     0.579566666667     0.448925000000     0          
T        Si     0.289500000000     0.526533333333     0.375000000000     0          
T        Si     0.289800000000     0.376900000000     0.301075000000     0          
T        Si     0.237033333333     0.377166666667     0.375000000000     0          
T        Si     0.087100000000     0.376866666667     0.448925000000     0          
T        Si     0.289766666667     0.579566666667     0.301075000000     0          
T        Si     0.289800000000     0.376900000000     0.448925000000     0          
T        Si     0.043533333333     0.420433333333     0.301075000000     0          
T        Si     0.096300000000     0.473466666667     0.375000000000     0          
T        Si     0.111100000000     0.555566666667     0.375000000000     0          
T        Si     0.043566666667     0.623133333333     0.448925000000     0          
T        Si     0.043833333333     0.570366666667     0.375000000000     0          
T        Si     0.246233333333     0.623100000000     0.301075000000     0          
T        Si     0.193200000000     0.622833333333     0.375000000000     0          
T        Si     0.043533333333     0.420433333333     0.448925000000     0          
T        Si     0.043566666667     0.623133333333     0.301075000000     0          
T        Si     0.246233333333     0.623100000000     0.448925000000     0          
T        Si     0.087100000000     0.376866666667     0.551075000000     0          
T        Si     0.140133333333     0.429633333333     0.625000000000     0          
T        Si     0.222233333333     0.444433333333     0.625000000000     0          
T        Si     0.289766666667     0.579566666667     0.698925000000     0          
T        Si     0.289500000000     0.526533333333     0.625000000000     0          
T        Si     0.289800000000     0.376900000000     0.551075000000     0          
T        Si     0.237033333333     0.377166666667     0.625000000000     0          
T        Si     0.087100000000     0.376866666667     0.698925000000     0          
T        Si     0.289766666667     0.579566666667     0.551075000000     0          
T        Si     0.289800000000     0.376900000000     0.698925000000     0          
T        Si     0.043533333333     0.420433333333     0.551075000000     0          
T        Si     0.096300000000     0.473466666667     0.625000000000     0          
T        Si     0.111100000000     0.555566666667     0.625000000000     0          
T        Si     0.043566666667     0.623133333333     0.698925000000     0          
T        Si     0.043833333333     0.570366666667     0.625000000000     0          
T        Si     0.246233333333     0.623100000000     0.551075000000     0          
T        Si     0.193200000000     0.622833333333     0.625000000000     0          
T        Si     0.043533333333     0.420433333333     0.698925000000     0          
T        Si     0.043566666667     0.623133333333     0.551075000000     0          
T        Si     0.246233333333     0.623100000000     0.698925000000     0          
T        Si     0.087100000000     0.376866666667     0.801075000000     0          
T        Si     0.140133333333     0.429633333333     0.875000000000     0          
T        Si     0.222233333333     0.444433333333     0.875000000000     0          
T        Si     0.289766666667     0.579566666667     0.948925000000     0          
T        Si     0.289500000000     0.526533333333     0.875000000000     0          
T        Si     0.289800000000     0.376900000000     0.801075000000     0          
T        Si     0.237033333333     0.377166666667     0.875000000000     0          
T        Si     0.087100000000     0.376866666667     0.948925000000     0          
T        Si     0.289766666667     0.579566666667     0.801075000000     0          
T        Si     0.289800000000     0.376900000000     0.948925000000     0          
T        Si     0.043533333333     0.420433333333     0.801075000000     0          
T        Si     0.096300000000     0.473466666667     0.875000000000     0          
T        Si     0.111100000000     0.555566666667     0.875000000000     0          
T        Si     0.043566666667     0.623133333333     0.948925000000     0          
T        Si     0.043833333333     0.570366666667     0.875000000000     0          
T        Si     0.246233333333     0.623100000000     0.801075000000     0          
T        Si     0.193200000000     0.622833333333     0.875000000000     0          
T        Si     0.043533333333     0.420433333333     0.948925000000     0          
T        Si     0.043566666667     0.623133333333     0.801075000000     0          
T        Si     0.246233333333     0.623100000000     0.948925000000     0          
T        Si     0.087100000000     0.710200000000     0.051075000000     0          
T        Si     0.140133333333     0.762966666667     0.125000000000     0          
T        Si     0.222233333333     0.777766666667     0.125000000000     0          
T        Si     0.289766666667     0.912900000000     0.198925000000     0          
T        Si     0.289500000000     0.859866666667     0.125000000000     0          
T        Si     0.289800000000     0.710233333333     0.051075000000     0          
T        Si     0.237033333333     0.710500000000     0.125000000000     0          
T        Si     0.087100000000     0.710200000000     0.198925000000     0          
T        Si     0.289766666667     0.912900000000     0.051075000000     0          
T        Si     0.289800000000     0.710233333333     0.198925000000     0          
T        Si     0.043533333333     0.753766666667     0.051075000000     0          
T        Si     0.096300000000     0.806800000000     0.125000000000     0          
T        Si     0.111100000000     0.888900000000     0.125000000000     0          
T        Si     0.043566666667     0.956466666667     0.198925000000     0          
T        Si     0.043833333333     0.903700000000     0.125000000000     0          
T        Si     0.246233333333     0.956433333333     0.051075000000     0          
T        Si     0.193200000000     0.956166666667     0.125000000000     0          
T        Si     0.043533333333     0.753766666667     0.198925000000     0          
T        Si     0.043566666667     0.956466666667     0.051075000000     0          
T        Si     0.246233333333     0.956433333333     0.198925000000     0          
T        Si     0.087100000000     0.710200000000     0.301075000000     0          
T        Si     0.140133333333     0.762966666667     0.375000000000     0          
T        Si     0.222233333333     0.777766666667     0.375000000000     0          
T        Si     0.289766666667     0.912900000000     0.448925000000     0          
T        Si     0.289500000000     0.859866666667     0.375000000000     0          
T        Si     0.289800000000     0.710233333333     0.301075000000     0          
T        Si     0.237033333333     0.710500000000     0.375000000000     0          
T        Si     0.087100000000     0.710200000000     0.448925000000     0          
T        Si     0.289766666667     0.912900000000     0.301075000000     0          
T        Si     0.289800000000     0.710233333333     0.448925000000     0          
T        Si     0.043533333333     0.753766666667     0.301075000000     0          
T        Si     0.096300000000     0.806800000000     0.375000000000     0          
T        Si     0.111100000000     0.888900000000     0.375000000000     0          
T        Si     0.043566666667     0.956466666667     0.448925000000     0          
T        Si     0.043833333333     0.903700000000     0.375000000000     0          
T        Si     0.246233333333     0.956433333333     0.301075000000     0          
T        Si     0.193200000000     0.956166666667     0.375000000000     0          
T        Si     0.043533333333     0.753766666667     0.448925000000     0          
T        Si     0.043566666667     0.956466666667     0.301075000000     0          
T        Si     0.246233333333     0.956433333333     0.448925000000     0          
T        Si     0.087100000000     0.710200000000     0.551075000000     0          
T        Si     0.140133333333     0.762966666667     0.625000000000     0          
T        Si     0.222233333333     0.777766666667     0.625000000000     0          
T        Si     0.289766666667     0.912900000000     0.698925000000     0          
T        Si     0.289500000000     0.859866666667     0.625000000000     0          
T        Si     0.289800000000     0.710233333333     0.551075000000     0          
T        Si     0.237033333333     0.710500000000     0.625000000000     0          
T        Si     0.087100000000     0.710200000000     0.698925000000     0          
T        Si     0.289766666667     0.912900000000     0.551075000000     0          
T        Si     0.289800000000     0.710233333333     0.698925000000     0          
T        Si     0.043533333333     0.753766666667     0.551075000000     0          
T        Si     0.096300000000     0.806800000000     0.625000000000     0          
T        Si     0.111100000000     0.888900000000     0.625000000000     0          
T        Si     0.043566666667     0.956466666667     0.698925000000     0          
T        Si     0.043833333333     0.903700000000     0.625000000000     0          
T        Si     0.246233333333     0.956433333333     0.551075000000     0          
T        Si     0.193200000000     0.956166666667     0.625000000000     0          
T        Si     0.043533333333     0.753766666667     0.698925000000     0          
T        Si     0.043566666667     0.956466666667     0.551075000000     0          
T        Si     0.246233333333     0.956433333333     0.698925000000     0          
T        Si     0.087100000000     0.710200000000     0.801075000000     0          
T        Si     0.140133333333     0.762966666667     0.875000000000     0          
T        Si     0.222233333333     0.777766666667     0.875000000000     0          
T        Si     0.289766666667     0.912900000000     0.948925000000     0          
T        Si     0.289500000000     0.859866666667     0.875000000000     0          
T        Si     0.289800000000     0.710233333333     0.801075000000     0          
T        Si     0.237033333333     0.710500000000     0.875000000000     0          
T        Si     0.087100000000     0.710200000000     0.948925000000     0          
T        Si     0.289766666667     0.912900000000     0.801075000000     0          
T        Si     0.289800000000     0.710233333333     0.948925000000     0          
T        Si     0.043533333333     0.753766666667     0.801075000000     0          
T        Si     0.096300000000     0.806800000000     0.875000000000     0          
T        Si     0.111100000000     0.888900000000     0.875000000000     0          
T        Si     0.043566666667     0.956466666667     0.948925000000     0          
T        Si     0.043833333333     0.903700000000     0.875000000000     0          
T        Si     0.246233333333     0.956433333333     0.801075000000     0          
T        Si     0.193200000000     0.956166666667     0.875000000000     0          
T        Si     0.043533333333     0.753766666667     0.948925000000     0          
T        Si     0.043566666667     0.956466666667     0.801075000000     0          
T        Si     0.246233333333     0.956433333333     0.948925000000     0          
T        Si     0.420433333333     0.043533333333     0.051075000000     0          
T        Si     0.473466666667     0.096300000000     0.125000000000     0          
T        Si     0.555566666667     0.111100000000     0.125000000000     0          
T        Si     0.623100000000     0.246233333333     0.198925000000     0          
T        Si     0.622833333333     0.193200000000     0.125000000000     0          
T        Si     0.623133333333     0.043566666667     0.051075000000     0          
T        Si     0.570366666667     0.043833333333     0.125000000000     0          
T        Si     0.420433333333     0.043533333333     0.198925000000     0          
T        Si     0.623100000000     0.246233333333     0.051075000000     0          
T        Si     0.623133333333     0.043566666667     0.198925000000     0          
T        Si     0.376866666667     0.087100000000     0.051075000000     0          
T        Si     0.429633333333     0.140133333333     0.125000000000     0          
T        Si     0.444433333333     0.222233333333     0.125000000000     0          
T        Si     0.376900000000     0.289800000000     0.198925000000     0          
T        Si     0.377166666667     0.237033333333     0.125000000000     0          
T        Si     0.579566666667     0.289766666667     0.051075000000     0          
T        Si     0.526533333333     0.289500000000     0.125000000000     0          
T        Si     0.376866666667     0.087100000000     0.198925000000     0          
T        Si     0.376900000000     0.289800000000     0.051075000000     0          
T        Si     0.579566666667     0.289766666667     0.198925000000     0          
T        Si     0.420433333333     0.043533333333     0.301075000000     0          
T        Si     0.473466666667     0.096300000000     0.375000000000     0          
T        Si     0.555566666667     0.111100000000     0.375000000000     0          
T        Si     0.623100000000     0.246233333333     0.448925000000     0          
T        Si     0.622833333333     0.193200000000     0.375000000000     0          
T        Si     0.623133333333     0.043566666667     0.301075000000     0          
T        Si     0.570366666667     0.043833333333     0.375000000000     0          
T        Si     0.420433333333     0.043533333333     0.448925000000     0          
T        Si     0.623100000000     0.246233333333     0.301075000000     0          
T        Si     0.623133333333     0.043566666667     0.448925000000     0          
T        Si     0.376866666667     0.087100000000     0.301075000000     0          
T        Si     0.429633333333     0.140133333333     0.375000000000     0          
T        Si     0.444433333333     0.222233333333     0.375000000000     0          
T        Si     0.376900000000     0.289800000000     0.448925000000     0          
T        Si     0.377166666667     0.237033333333     0.375000000000     0          
T        Si     0.579566666667     0.289766666667     0.301075000000     0          
T        Si     0.526533333333     0.289500000000     0.375000000000     0          
T        Si     0.376866666667     0.087100000000     0.448925000000     0          
T        Si     0.376900000000     0.289800000000     0.301075000000     0          
T        Si     0.579566666667     0.289766666667     0.448925000000     0          
T        Si     0.420433333333     0.043533333333     0.551075000000     0          
T        Si     0.473466666667     0.096300000000     0.625000000000     0          
T        Si     0.555566666667     0.111100000000     0.625000000000     0          
T        Si     0.623100000000     0.246233333333     0.698925000000     0          
T        Si     0.622833333333     0.193200000000     0.625000000000     0          
T        Si     0.623133333333     0.043566666667     0.551075000000     0          
T        Si     0.570366666667     0.043833333333     0.625000000000     0          
T        Si     0.420433333333     0.043533333333     0.698925000000     0          
T        Si     0.623100000000     0.246233333333     0.551075000000     0          
T        Si     0.623133333333     0.043566666667     0.698925000000     0          
T        Si     0.376866666667     0.087100000000     0.551075000000     0          
T        Si     0.429633333333     0.140133333333     0.625000000000     0          
T        Si     0.444433333333     0.222233333333     0.625000000000     0          
T        Si     0.376900000000     0.289800000000     0.698925000000     0          
T        Si     0.377166666667     0.237033333333     0.625000000000     0          
T        Si     0.579566666667     0.289766666667     0.551075000000     0          
T        Si     0.526533333333     0.289500000000     0.625000000000     0          
T        Si     0.376866666667     0.087100000000     0.698925000000     0          
T        Si     0.376900000000     0.289800000000     0.551075000000     0          
T        Si     0.579566666667     0.289766666667     0.698925000000     0          
T        Si     0.420433333333     0.043533333333     0.801075000000     0          
T        Si     0.473466666667     0.096300000000     0.875000000000     0          
T        Si     0.555566666667     0.111100000000     0.875000000000     0          
T        Si     0.623100000000     0.246233333333     0.948925000000     0          
T        Si     0.622833333333     0.193200000000     0.875000000000     0          
T        Si     0.623133333333     0.043566666667     0.801075000000     0          
T        Si     0.570366666667     0.043833333333     0.875000000000     0          
T        Si     0.420433333333     0.043533333333     0.948925000000     0          
T        Si     0.623100000000     0.246233333333     0.801075000000     0          
T        Si     0.623133333333     0.043566666667     0.948925000000     0          
T        Si     0.376866666667     0.087100000000     0.801075000000     0          
T        Si     0.429633333333     0.140133333333     0.875000000000     0          
T        Si     0.444433333333     0.222233333333     0.875000000000     0          
T        Si     0.376900000000     0.289800000000     0.948925000000     0          
T        Si     0.377166666667     0.237033333333     0.875000000000     0          
T        Si     0.579566666667     0.289766666667     0.801075000000     0          
T        Si     0.526533333333     0.289500000000     0.875000000000     0          
T        Si     0.376866666667     0.087100000000     0.948925000000     0          
T        Si     0.376900000000     0.289800000000     0.801075000000     0          
T        Si     0.579566666667     0.289766666667     0.948925000000     0          
T        Si     0.420433333333     0.376866666667     0.051075000000     0          
T        Si     0.473466666667     0.429633333333     0.125000000000     0          
T        Si     0.555566666667     0.444433333333     0.125000000000     0          
T        Si     0.623100000000     0.579566666667     0.198925000000     0          
T        Si     0.622833333333     0.526533333333     0.125000000000     0          
T        Si     0.623133333333     0.376900000000     0.051075000000     0          
T        Si     0.570366666667     0.377166666667     0.125000000000     0          
T        Si     0.420433333333     0.376866666667     0.198925000000     0          
T        Si     0.623100000000     0.579566666667     0.051075000000     0          
T        Si     0.623133333333     0.376900000000     0.198925000000     0          
T        Si     0.376866666667     0.420433333333     0.051075000000     0          
T        Si     0.429633333333     0.473466666667     0.125000000000     0          
T        Si     0.444433333333     0.555566666667     0.125000000000     0          
T        Si     0.376900000000     0.623133333333     0.198925000000     0          
T        Si     0.377166666667     0.570366666667     0.125000000000     0          
T        Si     0.579566666667     0.623100000000     0.051075000000     0          
T        Si     0.526533333333     0.622833333333     0.125000000000     0          
T        Si     0.376866666667     0.420433333333     0.198925000000     0          
T        Si     0.376900000000     0.623133333333     0.051075000000     0          
T        Si     0.579566666667     0.623100000000     0.198925000000     0          
T        Si     0.420433333333     0.376866666667     0.301075000000     0          
T        Si     0.473466666667     0.429633333333     0.375000000000     0          
T        Si     0.555566666667     0.444433333333     0.375000000000     0          
T        Si     0.623100000000     0.579566666667     0.448925000000     0          
T        Si     0.622833333333     0.526533333333     0.375000000000     0          
T        Si     0.623133333333     0.376900000000     0.301075000000     0          
T        Si     0.570366666667     0.377166666667     0.375000000000     0          
T        Si     0.420433333333     0.376866666667     0.448925000000     0          
T        Si     0.623100000000     0.579566666667     0.301075000000     0          
T        Si     0.623133333333     0.376900000000     0.448925000000     0          
T        Si     0.376866666667     0.420433333333     0.301075000000     0          
T        Si     0.429633333333     0.473466666667     0.375000000000     0          
T        Si     0.444433333333     0.555566666667     0.375000000000     0          
T        Si     0.376900000000     0.623133333333     0.448925000000     0          
T        Si     0.377166666667     0.570366666667     0.375000000000     0          
T        Si     0.579566666667     0.623100000000     0.301075000000     0          
T        Si     0.526533333333     0.622833333333     0.375000000000     0          
T        Si     0.376866666667     0.420433333333     0.448925000000     0          
T        Si     0.376900000000     0.623133333333     0.301075000000     0          
T        Si     0.579566666667     0.623100000000     0.448925000000     0          
T        Si     0.420433333333     0.376866666667     0.551075000000     0          
T        Si     0.473466666667     0.429633333333     0.625000000000     0          
T        Si     0.555566666667     0.444433333333     0.625000000000     0          
T        Si     0.623100000000     0.579566666667     0.698925000000     0          
T        Si     0.622833333333     0.526533333333     0.625000000000     0          
T        Si     0.623133333333     0.376900000000     0.551075000000     0          
T        Si     0.570366666667     0.377166666667     0.625000000000     0          
T        Si     0.420433333333     0.376866666667     0.698925000000     0          
T        Si     0.623100000000     0.579566666667     0.551075000000     0          
T        Si     0.623133333333     0.376900000000     0.698925000000     0          
T        Si     0.376866666667     0.420433333333     0.551075000000     0          
T        Si     0.429633333333     0.473466666667     0.625000000000     0          
T        Si     0.444433333333     0.555566666667     0.625000000000     0          
T        Si     0.376900000000     0.623133333333     0.698925000000     0          
T        Si     0.377166666667     0.570366666667     0.625000000000     0          
T        Si     0.579566666667     0.623100000000     0.551075000000     0          
T        Si     0.526533333333     0.622833333333     0.625000000000     0          
T        Si     0.376866666667     0.420433333333     0.698925000000     0          
T        Si     0.376900000000     0.623133333333     0.551075000000     0          
T        Si     0.579566666667     0.623100000000     0.698925000000     0          
T        Si     0.420433333333     0.376866666667     0.801075000000     0          
T        Si     0.473466666667     0.429633333333     0.875000000000     0          
T        Si     0.555566666667     0.444433333333     0.875000000000     0          
T        Si     0.623100000000     0.579566666667     0.948925000000     0          
T        Si     0.622833333333     0.526533333333     0.875000000000     0          
T        Si     0.623133333333     0.376900000000     0.801075000000     0          
T        Si     0.570366666667     0.377166666667     0.875000000000     0          
T        Si     0.420433333333     0.376866666667     0.948925000000     0          
T        Si     0.623100000000     0.579566666667     0.801075000000     0          
T        Si     0.623133333333     0.376900000000     0.948925000000     0          
T        Si     0.376866666667     0.420433333333     0.801075000000     0          
T        Si     0.429633333333     0.473466666667     0.875000000000     0          
T        Si     0.444433333333     0.555566666667     0.875000000000     0          
T        Si     0.376900000000     0.623133333333     0.948925000000     0          
T        Si     0.377166666667     0.570366666667     0.875000000000     0          
T        Si     0.579566666667     0.623100000000     0.801075000000     0          
T        Si     0.526533333333     0.622833333333     0.875000000000     0          
T        Si     0.376866666667     0.420433333333     0.948925000000     0          
T        Si     0.376900000000     0.623133333333     0.801075000000     0          
T        Si     0.579566666667     0.623100000000     0.948925000000     0          
T        Si     0.420433333333     0.710200000000     0.051075000000     0          
T        Si     0.473466666667     0.762966666667     0.125000000000     0          
T        Si     0.555566666667     0.777766666667     0.125000000000     0          
T        Si     0.623100000000     0.912900000000     0.198925000000     0          
T        Si     0.622833333333     0.859866666667     0.125000000000     0          
T        Si     0.623133333333     0.710233333333     0.051075000000     0          
T        Si     0.570366666667     0.710500000000     0.125000000000     0          
T        Si     0.420433333333     0.710200000000     0.198925000000     0          
T        Si     0.623100000000     0.912900000000     0.051075000000     0          
T        Si     0.623133333333     0.710233333333     0.198925000000     0          
T        Si     0.376866666667     0.753766666667     0.051075000000     0          
T        Si     0.429633333333     0.806800000000     0.125000000000     0          
T        Si     0.444433333333     0.888900000000     0.125000000000     0          
T        Si     0.376900000000     0.956466666667     0.198925000000     0          
T        Si     0.377166666667     0.903700000000     0.125000000000     0          
T        Si     0.579566666667     0.956433333333     0.051075000000     0          
T        Si     0.526533333333     0.956166666667     0.125000000000     0          
T        Si     0.376866666667     0.753766666667     0.198925000000     0          
T        Si     0.376900000000     0.956466666667     0.051075000000     0          
T        Si     0.579566666667     0.956433333333     0.198925000000     0          
T        Si     0.420433333333     0.710200000000     0.301075000000     0          
T        Si     0.473466666667     0.762966666667     0.375000000000     0          
T        Si     0.555566666667     0.777766666667     0.375000000000     0          
T        Si     0.623100000000     0.912900000000     0.448925000000     0          
T        Si     0.622833333333     0.859866666667     0.375000000000     0          
T        Si     0.623133333333     0.710233333333     0.301075000000     0          
T        Si     0.570366666667     0.710500000000     0.375000000000     0          
T        Si     0.420433333333     0.710200000000     0.448925000000     0          
T        Si     0.623100000000     0.912900000000     0.301075000000     0          
T        Si     0.623133333333     0.710233333333     0.448925000000     0          
T        Si     0.376866666667     0.753766666667     0.301075000000     0          
T        Si     0.429633333333     0.806800000000     0.375000000000     0          
T        Si     0.444433333333     0.888900000000     0.375000000000     0          
T        Si     0.376900000000     0.956466666667     0.448925000000     0          
T        Si     0.377166666667     0.903700000000     0.375000000000     0          
T        Si     0.579566666667     0.956433333333     0.301075000000     0          
T        Si     0.526533333333     0.956166666667     0.375000000000     0          
T        Si     0.376866666667     0.753766666667     0.448925000000     0          
T        Si     0.376900000000     0.956466666667     0.301075000000     0          
T        Si     0.579566666667     0.956433333333     0.448925000000     0          
T        Si     0.420433333333     0.710200000000     0.551075000000     0          
T        Si     0.473466666667     0.762966666667     0.625000000000     0          
T        Si     0.555566666667     0.777766666667     0.625000000000     0          
T        Si     0.623100000000     0.912900000000     0.698925000000     0          
T        Si     0.622833333333     0.859866666667     0.625000000000     0          
T        Si     0.623133333333     0.710233333333     0.551075000000     0          
T        Si     0.570366666667     0.710500000000     0.625000000000     0          
T        Si     0.420433333333     0.710200000000     0.698925000000     0          
T        Si     0.623100000000     0.912900000000     0.551075000000     0          
T        Si     0.623133333333     0.710233333333     0.698925000000     0          
T        Si     0.376866666667     0.753766666667     0.551075000000     0          
T        Si     0.429633333333     0.806800000000     0.625000000000     0          
T        Si     0.444433333333     0.888900000000     0.625000000000     0          
T        Si     0.376900000000     0.956466666667     0.698925000000     0          
T        Si     0.377166666667     0.903700000000     0.625000000000     0          
T        Si     0.579566666667     0.956433333333     0.551075000000     0          
T        Si     0.526533333333     0.956166666667     0.625000000000     0          
T        Si     0.376866666667     0.753766666667     0.698925000000     0          
T        Si     0.376900000000     0.956466666667     0.551075000000     0          
T        Si     0.579566666667     0.956433333333     0.698925000000     0          
T        Si     0.420433333333     0.710200000000     0.801075000000     0          
T        Si     0.473466666667     0.762966666667     0.875000000000     0          
T        Si     0.555566666667     0.777766666667     0.875000000000     0          
T        Si     0.623100000000     0.912900000000     0.948925000000     0          
T        Si     0.622833333333     0.859866666667     0.875000000000     0          
T        Si     0.623133333333     0.710233333333     0.801075000000     0          
T        Si     0.570366666667     0.710500000000     0.875000000000     0          
T        Si     0.420433333333     0.710200000000     0.948925000000     0          
T        Si     0.623100000000     0.912900000000     0.801075000000     0          
T        Si     0.623133333333     0.710233333333     0.948925000000     0          
T        Si     0.376866666667     0.753766666667     0.801075000000     0          
T        Si     0.429633333333     0.806800000000     0.875000000000     0          
T        Si     0.444433333333     0.888900000000     0.875000000000     0          
T        Si     0.376900000000     0.956466666667     0.948925000000     0          
T        Si     0.377166666667     0.903700000000     0.875000000000     0          
T        Si     0.579566666667     0.956433333333     0.801075000000     0          
T        Si     0.526533333333     0.956166666667     0.875000000000     0          
T        Si     0.376866666667     0.753766666667     0.948925000000     0          
T        Si     0.376900000000     0.956466666667     0.801075000000     0          
T        Si     0.579566666667     0.956433333333     0.948925000000     0          
T        Si     0.753766666667     0.043533333333     0.051075000000     0          
T        Si     0.806800000000     0.096300000000     0.125000000000     0          
T        Si     0.888900000000     0.111100000000     0.125000000000     0          
T        Si     0.956433333333     0.246233333333     0.198925000000     0          
T        Si     0.956166666667     0.193200000000     0.125000000000     0          
T        Si     0.956466666667     0.043566666667     0.051075000000     0          
T        Si     0.903700000000     0.043833333333     0.125000000000     0          
T        Si     0.753766666667     0.043533333333     0.198925000000     0          
T        Si     0.956433333333     0.246233333333     0.051075000000     0          
T        Si     0.956466666667     0.043566666667     0.198925000000     0          
T        Si     0.710200000000     0.087100000000     0.051075000000     0          
T        Si     0.762966666667     0.140133333333     0.125000000000     0          
T        Si     0.777766666667     0.222233333333     0.125000000000     0          
T        Si     0.710233333333     0.289800000000     0.198925000000     0          
T        Si     0.710500000000     0.237033333333     0.125000000000     0          
T        Si     0.912900000000     0.289766666667     0.051075000000     0          
T        Si     0.859866666667     0.289500000000     0.125000000000     0          
T        Si     0.710200000000     0.087100000000     0.198925000000     0          
T        Si     0.710233333333     0.289800000000     0.051075000000     0          
T        Si     0.912900000000     0.289766666667     0.198925000000     0          
T        Si     0.753766666667     0.043533333333     0.301075000000     0          
T        Si     0.806800000000     0.096300000000     0.375000000000     0          
T        Si     0.888900000000     0.111100000000     0.375000000000     0          
T        Si     0.956433333333     0.246233333333     0.448925000000     0          
T        Si     0.956166666667     0.193200000000     0.375000000000     0          
T        Si     0.956466666667     0.043566666667     0.301075000000     0          
T        Si     0.903700000000     0.043833333333     0.375000000000     0          
T        Si     0.753766666667     0.043533333333     0.448925000000     0          
T        Si     0.956433333333     0.246233333333     0.301075000000     0          
T        Si     0.956466666667     0.043566666667     0.448925000000     0          
T        Si     0.710200000000     0.087100000000     0.301075000000     0          
T        Si     0.762966666667     0.140133333333     0.375000000000     0          
T        Si     0.777766666667     0.222233333333     0.375000000000     0          
T        Si     0.710233333333     0.289800000000     0.448925000000     0          
T        Si     0.710500000000     0.237033333333     0.375000000000     0          
T        Si     0.912900000000     0.289766666667     0.301075000000     0          
T        Si     0.859866666667     0.289500000000     0.375000000000     0          
T        Si     0.710200000000     0.087100000000     0.448925000000     0          
T        Si     0.710233333333     0.289800000000     0.301075000000     0          
T        Si     0.912900000000     0.289766666667     0.448925000000     0          
T        Si     0.753766666667     0.043533333333     0.551075000000     0          
T        Si     0.806800000000     0.096300000000     0.625000000000     0          
T        Si     0.888900000000     0.111100000000     0.625000000000     0          
T        Si     0.956433333333     0.246233333333     0.698925000000     0          
T        Si     0.956166666667     0.193200000000     0.625000000000     0          
T        Si     0.956466666667     0.043566666667     0.551075000000     0          
T        Si     0.903700000000     0.043833333333     0.625000000000     0          
T        Si     0.753766666667     0.043533333333     0.698925000000     0          
T        Si     0.956433333333     0.246233333333     0.551075000000     0          
T        Si     0.956466666667     0.043566666667     0.698925000000     0          
T        Si     0.710200000000     0.087100000000     0.551075000000     0          
T        Si     0.762966666667     0.140133333333     0.625000000000     0          
T        Si     0.777766666667     0.222233333333     0.625000000000     0          
T        Si     0.710233333333     0.289800000000     0.698925000000     0          
T        Si     0.710500000000     0.237033333333     0.625000000000     0          
T        Si     0.912900000000     0.289766666667     0.551075000000     0          
T        Si     0.859866666667     0.289500000000     0.625000000000     0          
T        Si     0.710200000000     0.087100000000     0.698925000000     0          
T        Si     0.710233333333     0.289800000000     0.551075000000     0          
T        Si     0.912900000000     0.289766666667     0.698925000000     0          
T        Si     0.753766666667     0.043533333333     0.801075000000     0          
T        Si     0.806800000000     0.096300000000     0.875000000000     0          
T        Si     0.888900000000     0.111100000000     0.875000000000     0          
T        Si     0.956433333333     0.246233333333     0.948925000000     0          
T        Si     0.956166666667     0.193200000000     0.875000000000     0          
T        Si     0.956466666667     0.043566666667     0.801075000000     0          
T        Si     0.903700000000     0.043833333333     0.875000000000     0          
T        Si     0.753766666667     0.043533333333     0.948925000000     0          
T        Si     0.956433333333     0.246233333333     0.801075000000     0          
T        Si     0.956466666667     0.043566666667     0.948925000000     0          
T        Si     0.710200000000     0.087100000000     0.801075000000     0          
T        Si     0.762966666667     0.140133333333     0.875000000000     0          
T        Si     0.777766666667     0.222233333333     0.875000000000     0          
T        Si     0.710233333333     0.289800000000     0.948925000000     0          
T        Si     0.710500000000     0.237033333333     0.875000000000     0          
T        Si     0.912900000000     0.289766666667     0.801075000000     0          
T        Si     0.859866666667     0.289500000000     0.875000000000     0          
T        Si     0.710200000000     0.087100000000     0.948925000000     0          
T        Si     0.710233333333     0.289800000000     0.801075000000     0          
T        Si     0.912900000000     0.289766666667     0.948925000000     0          
T        Si     0.753766666667     0.376866666667     0.051075000000     0          
T        Si     0.806800000000     0.429633333333     0.125000000000     0          
T        Si     0.888900000000     0.444433333333     0.125000000000     0          
T        Si     0.956433333333     0.579566666667     0.198925000000     0          
T        Si     0.956166666667     0.526533333333     0.125000000000     0          
T        Si     0.956466666667     0.376900000000     0.051075000000     0          
T        Si     0.903700000000     0.377166666667     0.125000000000     0          
T        Si     0.753766666667     0.376866666667     0.198925000000     0          
T        Si     0.956433333333     0.579566666667     0.051075000000     0          
T        Si     0.956466666667     0.376900000000     0.198925000000     0          
T        Si     0.710200000000     0.420433333333     0.051075000000     0          
T        Si     0.762966666667     0.473466666667     0.125000000000     0          
T        Si     0.777766666667     0.555566666667     0.125000000000     0          
T        Si     0.710233333333     0.623133333333     0.198925000000     0          
T        Si     0.710500000000     0.570366666667     0.125000000000     0          
T        Si     0.912900000000     0.623100000000     0.051075000000     0          
T        Si     0.859866666667     0.622833333333     0.125000000000     0          
T        Si     0.710200000000     0.420433333333     0.198925000000     0          
T        Si     0.710233333333     0.623133333333     0.051075000000     0          
T        Si     0.912900000000     0.623100000000     0.198925000000     0          
T        Si     0.753766666667     0.376866666667     0.301075000000     0          
T        Si     0.806800000000     0.429633333333     0.375000000000     0          
T        Si     0.888900000000     0.444433333333     0.375000000000     0          
T        Si     0.956433333333     0.579566666667     0.448925000000     0          
T        Si     0.956166666667     0.526533333333     0.375000000000     0          
T        Si     0.956466666667     0.376900000000     0.301075000000     0          
T        Si     0.903700000000     0.377166666667     0.375000000000     0          
T        Si     0.753766666667     0.376866666667     0.448925000000     0          
T        Si     0.956433333333     0.579566666667     0.301075000000     0          
T        Si     0.956466666667     0.376900000000     0.448925000000     0          
T        Si     0.710200000000     0.420433333333     0.301075000000     0          
T        Si     0.762966666667     0.473466666667     0.375000000000     0          
T        Si     0.777766666667     0.555566666667     0.375000000000     0          
T        Si     0.710233333333     0.623133333333     0.448925000000     0          
T        Si     0.710500000000     0.570366666667     0.375000000000     0          
T        Si     0.912900000000     0.623100000000     0.301075000000     0          
T        Si     0.859866666667     0.622833333333     0.375000000000     0          
T        Si     0.710200000000     0.420433333333     0.448925000000     0          
T        Si     0.710233333333     0.623133333333     0.301075000000     0          
T        Si     0.912900000000     0.623100000000     0.448925000000     0          
T        Si     0.753766666667     0.376866666667     0.551075000000     0          
T        Si     0.806800000000     0.429633333333     0.625000000000     0          
T        Si     0.888900000000     0.444433333333     0.625000000000     0          
T        Si     0.956433333333     0.579566666667     0.698925000000     0          
T        Si     0.956166666667     0.526533333333     0.625000000000     0          
T        Si     0.956466666667     0.376900000000     0.551075000000     0          
T        Si     0.903700000000     0.377166666667     0.625000000000     0          
T        Si     0.753766666667     0.376866666667     0.698925000000     0          
T        Si     0.956433333333     0.579566666667     0.551075000000     0          
T        Si     0.956466666667     0.376900000000     0.698925000000     0          
T        Si     0.710200000000     0.420433333333     0.551075000000     0          
T        Si     0.762966666667     0.473466666667     0.625000000000     0          
T        Si     0.777766666667     0.555566666667     0.625000000000     0          
T        Si     0.710233333333     0.623133333333     0.698925000000     0          
T        Si     0.710500000000     0.570366666667     0.625000000000     0          
T        Si     0.912900000000     0.623100000000     0.551075000000     0          
T        Si     0.859866666667     0.622833333333     0.625000000000     0          
T        Si     0.710200000000     0.420433333333     0.698925000000     0          
T        Si     0.710233333333     0.623133333333     0.551075000000     0          
T        Si     0.912900000000     0.623100000000     0.698925000000     0          
T        Si     0.753766666667     0.376866666667     0.801075000000     0          
T        Si     0.806800000000     0.429633333333     0.875000000000     0          
T        Si     0.888900000000     0.444433333333     0.875000000000     0          
T        Si     0.956433333333     0.579566666667     0.948925000000     0          
T        Si     0.956166666667     0.526533333333     0.875000000000     0          
T        Si     0.956466666667     0.376900000000     0.801075000000     0          
T        Si     0.903700000000     0.377166666667     0.875000000000     0          
T        Si     0.753766666667     0.376866666667     0.948925000000     0          
T        Si     0.956433333333     0.579566666667     0.801075000000     0          
T        Si     0.956466666667     0.376900000000     0.948925000000     0          
T        Si     0.710200000000     0.420433333333     0.801075000000     0          
T        Si     0.762966666667     0.473466666667     0.875000000000     0          
T        Si     0.777766666667     0.555566666667     0.875000000000     0          
T        Si     0.710233333333     0.623133333333     0.948925000000     0          
T        Si     0.710500000000     0.570366666667     0.875000000000     0          
T        Si     0.912900000000     0.623100000000     0.801075000000     0          
T        Si     0.859866666667     0.622833333333     0.875000000000     0          
T        Si     0.710200000000     0.420433333333     0.948925000000     0          
T        Si     0.710233333333     0.623133333333     0.801075000000     0          
T        Si     0.912900000000     0.623100000000     0.948925000000     0          
T        Si     0.753766666667     0.710200000000     0.051075000000     0          
T        Si     0.806800000000     0.762966666667     0.125000000000     0          
T        Si     0.888900000000     0.777766666667     0.125000000000     0          
T        Si     0.956433333333     0.912900000000     0.198925000000     0          
T        Si     0.956166666667     0.859866666667     0.125000000000     0          
T        Si     0.956466666667     0.710233333333     0.051075000000     0          
T        Si     0.903700000000     0.710500000000     0.125000000000     0          
T        Si     0.753766666667     0.710200000000     0.198925000000     0          
T        Si     0.956433333333     0.912900000000     0.051075000000     0          
T        Si     0.956466666667     0.710233333333     0.198925000000     0          
T        Si     0.710200000000     0.753766666667     0.051075000000     0          
T        Si     0.762966666667     0.806800000000     0.125000000000     0          
T        Si     0.777766666667     0.888900000000     0.125000000000     0          
T        Si     0.710233333333     0.956466666667     0.198925000000     0          
T        Si     0.710500000000     0.903700000000     0.125000000000     0          
T        Si     0.912900000000     0.956433333333     0.051075000000     0          
T        Si     0.859866666667     0.956166666667     0.125000000000     0          
T        Si     0.710200000000     0.753766666667     0.198925000000     0          
T        Si     0.710233333333     0.956466666667     0.051075000000     0          
T        Si     0.912900000000     0.956433333333     0.198925000000     0          
T        Si     0.753766666667     0.710200000000     0.301075000000     0          
T        Si     0.806800000000     0.762966666667     0.375000000000     0          
T        Si     0.888900000000     0.777766666667     0.375000000000     0          
T        Si     0.956433333333     0.912900000000     0.448925000000     0          
T        Si     0.956166666667     0.859866666667     0.375000000000     0          
T        Si     0.956466666667     0.710233333333     0.301075000000     0          
T        Si     0.903700000000     0.710500000000     0.375000000000     0          
T        Si     0.753766666667     0.710200000000     0.448925000000     0          
T        Si     0.956433333333     0.912900000000     0.301075000000     0          
T        Si     0.956466666667     0.710233333333     0.448925000000     0          
T        Si     0.710200000000     0.753766666667     0.301075000000     0          
T        Si     0.762966666667     0.806800000000     0.375000000000     0          
T        Si     0.777766666667     0.888900000000     0.375000000000     0          
T        Si     0.710233333333     0.956466666667     0.448925000000     0          
T        Si     0.710500000000     0.903700000000     0.375000000000     0          
T        Si     0.912900000000     0.956433333333     0.301075000000     0          
T        Si     0.859866666667     0.956166666667     0.375000000000     0          
T        Si     0.710200000000     0.753766666667     0.448925000000     0          
T        Si     0.710233333333     0.956466666667     0.301075000000     0          
T        Si     0.912900000000     0.956433333333     0.448925000000     0          
T        Si     0.753766666667     0.710200000000     0.551075000000     0          
T        Si     0.806800000000     0.762966666667     0.625000000000     0          
T        Si     0.888900000000     0.777766666667     0.625000000000     0          
T        Si     0.956433333333     0.912900000000     0.698925000000     0          
T        Si     0.956166666667     0.859866666667     0.625000000000     0          
T        Si     0.956466666667     0.710233333333     0.551075000000     0          
T        Si     0.903700000000     0.710500000000     0.625000000000     0          
T        Si     0.753766666667     0.710200000000     0.698925000000     0          
T        Si     0.956433333333     0.912900000000     0.551075000000     0          
T        Si     0.956466666667     0.710233333333     0.698925000000     0          
T        Si     0.710200000000     0.753766666667     0.551075000000     0          
T        Si     0.762966666667     0.806800000000     0.625000000000     0          
T        Si     0.777766666667     0.888900000000     0.625000000000     0          
T        Si     0.710233333333     0.956466666667     0.698925000000     0          
T        Si     0.710500000000     0.903700000000     0.625000000000     0          
T        Si     0.912900000000     0.956433333333     0.551075000000     0          
T        Si     0.859866666667     0.956166666667     0.625000000000     0          
T        Si     0.710200000000     0.753766666667     0.698925000000     0          
T        Si     0.710233333333     0.956466666667     0.551075000000     0          
T        Si     0.912900000000     0.956433333333     0.698925000000     0          
T        Si     0.753766666667     0.710200000000     0.801075000000     0          
T        Si     0.806800000000     0.762966666667     0.875000000000     0          
T        Si     0.888900000000     0.777766666667     0.875000000000     0          
T        Si     0.956433333333     0.912900000000     0.948925000000     0          
T        Si     0.956166666667     0.859866666667     0.875000000000     0          
T        Si     0.956466666667     0.710233333333     0.801075000000     0          
T        Si     0.903700000000     0.710500000000     0.875000000000     0          
T        Si     0.753766666667     0.710200000000     0.948925000000     0          
T        Si     0.956433333333     0.912900000000     0.801075000000     0          
T        Si     0.956466666667     0.710233333333     0.948925000000     0          
T        Si     0.710200000000     0.753766666667     0.801075000000     0          
T        Si     0.762966666667     0.806800000000     0.875000000000     0          
T        Si     0.777766666667     0.888900000000     0.875000000000     0          
T        Si     0.710233333333     0.956466666667     0.948925000000     0          
T        Si     0.710500000000     0.903700000000     0.875000000000     0          
T        Si     0.912900000000     0.956433333333     0.801075000000     0          
T        Si     0.859866666667     0.956166666667     0.875000000000     0          
T        Si     0.710200000000     0.753766666667     0.948925000000     0          
T        Si     0.710233333333     0.956466666667     0.801075000000     0          
T        Si     0.912900000000     0.956433333333     0.948925000000     0          
O        O      0.099966666667     0.048933333333     0.000000000000     0          
O        O      0.123100000000     0.070400000000     0.081500000000     0          
O        O      0.070733333333     0.000000000000     0.065250000000     0          
O        O      0.054766666667     0.054766666667     0.057575000000     0          
O        O      0.129033333333     0.129033333333     0.125000000000     0          
O        O      0.185566666667     0.115433333333     0.125000000000     0          
O        O      0.282300000000     0.233366666667     0.000000000000     0          
O        O      0.280633333333     0.210233333333     0.168500000000     0          
O        O      0.262600000000     0.262600000000     0.184750000000     0          
O        O      0.000000000000     0.278566666667     0.192425000000     0          
O        O      0.000000000000     0.204300000000     0.125000000000     0          
O        O      0.263200000000     0.147766666667     0.125000000000     0          
O        O      0.284400000000     0.051033333333     0.000000000000     0          
O        O      0.262933333333     0.052700000000     0.081500000000     0          
O        O      0.000000000000     0.070733333333     0.065250000000     0          
O        O      0.278566666667     0.000000000000     0.057575000000     0          
O        O      0.204300000000     0.000000000000     0.125000000000     0          
O        O      0.217900000000     0.070133333333     0.125000000000     0          
O        O      0.123100000000     0.070400000000     0.168500000000     0          
O        O      0.070733333333     0.000000000000     0.184750000000     0          
O        O      0.054766666667     0.054766666667     0.192425000000     0          
O        O      0.280633333333     0.210233333333     0.081500000000     0          
O        O      0.262600000000     0.262600000000     0.065250000000     0          
O        O      0.000000000000     0.278566666667     0.057575000000     0          
O        O      0.262933333333     0.052700000000     0.168500000000     0          
O        O      0.000000000000     0.070733333333     0.184750000000     0          
O        O      0.278566666667     0.000000000000     0.192425000000     0          
O        O      0.048933333333     0.099966666667     0.000000000000     0          
O        O      0.070400000000     0.123100000000     0.081500000000     0          
O        O      0.115433333333     0.185566666667     0.125000000000     0          
O        O      0.051033333333     0.284400000000     0.000000000000     0          
O        O      0.052700000000     0.262933333333     0.168500000000     0          
O        O      0.070133333333     0.217900000000     0.125000000000     0          
O        O      0.233366666667     0.282300000000     0.000000000000     0          
O        O      0.210233333333     0.280633333333     0.081500000000     0          
O        O      0.147766666667     0.263200000000     0.125000000000     0          
O        O      0.070400000000     0.123100000000     0.168500000000     0          
O        O      0.052700000000     0.262933333333     0.081500000000     0          
O        O      0.210233333333     0.280633333333     0.168500000000     0          
O        O      0.099966666667     0.048933333333     0.250000000000     0          
O        O      0.123100000000     0.070400000000     0.331500000000     0          
O        O      0.070733333333     0.000000000000     0.315250000000     0          
O        O      0.054766666667     0.054766666667     0.307575000000     0          
O        O      0.129033333333     0.129033333333     0.375000000000     0          
O        O      0.185566666667     0.115433333333     0.375000000000     0          
O        O      0.282300000000     0.233366666667     0.250000000000     0          
O        O      0.280633333333     0.210233333333     0.418500000000     0          
O        O      0.262600000000     0.262600000000     0.434750000000     0          
O        O      0.000000000000     0.278566666667     0.442425000000     0          
O        O      0.000000000000     0.204300000000     0.375000000000     0          
O        O      0.263200000000     0.147766666667     0.375000000000     0          
O        O      0.284400000000     0.051033333333     0.250000000000     0          
O        O      0.262933333333     0.052700000000     0.331500000000     0          
O        O      0.000000000000     0.070733333333     0.315250000000     0          
O        O      0.278566666667     0.000000000000     0.307575000000     0          
O        O      0.204300000000     0.000000000000     0.375000000000     0          
O        O      0.217900000000     0.070133333333     0.375000000000     0          
O        O      0.123100000000     0.070400000000     0.418500000000     0          
O        O      0.070733333333     0.000000000000     0.434750000000     0          
O        O      0.054766666667     0.054766666667     0.442425000000     0          
O        O      0.280633333333     0.210233333333     0.331500000000     0          
O        O      0.262600000000     0.262600000000     0.315250000000     0          
O        O      0.000000000000     0.278566666667     0.307575000000     0          
O        O      0.262933333333     0.052700000000     0.418500000000     0          
O        O      0.000000000000     0.070733333333     0.434750000000     0          
O        O      0.278566666667     0.000000000000     0.442425000000     0          
O        O      0.048933333333     0.099966666667     0.250000000000     0          
O        O      0.070400000000     0.123100000000     0.331500000000     0          
O        O      0.115433333333     0.185566666667     0.375000000000     0          
O        O      0.051033333333     0.284400000000     0.250000000000     0          
O        O      0.052700000000     0.262933333333     0.418500000000     0          
O        O      0.070133333333     0.217900000000     0.375000000000     0          
O        O      0.233366666667     0.282300000000     0.250000000000     0          
O        O      0.210233333333     0.280633333333     0.331500000000     0          
O        O      0.147766666667     0.263200000000     0.375000000000     0          
O        O      0.070400000000     0.123100000000     0.418500000000     0          
O        O      0.052700000000     0.262933333333     0.331500000000     0          
O        O      0.210233333333     0.280633333333     0.418500000000     0          
O        O      0.099966666667     0.048933333333     0.500000000000     0          
O        O      0.123100000000     0.070400000000     0.581500000000     0          
O        O      0.070733333333     0.000000000000     0.565250000000     0          
O        O      0.054766666667     0.054766666667     0.557575000000     0          
O        O      0.129033333333     0.129033333333     0.625000000000     0          
O        O      0.185566666667     0.115433333333     0.625000000000     0          
O        O      0.282300000000     0.233366666667     0.500000000000     0          
O        O      0.280633333333     0.210233333333     0.668500000000     0          
O        O      0.262600000000     0.262600000000     0.684750000000     0          
O        O      0.000000000000     0.278566666667     0.692425000000     0          
O        O      0.000000000000     0.204300000000     0.625000000000     0          
O        O      0.263200000000     0.147766666667     0.625000000000     0          
O        O      0.284400000000     0.051033333333     0.500000000000     0          
O        O      0.262933333333     0.052700000000     0.581500000000     0          
O        O      0.000000000000     0.070733333333     0.565250000000     0          
O        O      0.278566666667     0.000000000000     0.557575000000     0          
O        O      0.204300000000     0.000000000000     0.625000000000     0          
O        O      0.217900000000     0.070133333333     0.625000000000     0          
O        O      0.123100000000     0.070400000000     0.668500000000     0          
O        O      0.070733333333     0.000000000000     0.684750000000     0          
O        O      0.054766666667     0.054766666667     0.692425000000     0          
O        O      0.280633333333     0.210233333333     0.581500000000     0          
O        O      0.262600000000     0.262600000000     0.565250000000     0          
O        O      0.000000000000     0.278566666667     0.557575000000     0          
O        O      0.262933333333     0.052700000000     0.668500000000     0          
O        O      0.000000000000     0.070733333333     0.684750000000     0          
O        O      0.278566666667     0.000000000000     0.692425000000     0          
O        O      0.048933333333     0.099966666667     0.500000000000     0          
O        O      0.070400000000     0.123100000000     0.581500000000     0          
O        O      0.115433333333     0.185566666667     0.625000000000     0          
O        O      0.051033333333     0.284400000000     0.500000000000     0          
O        O      0.052700000000     0.262933333333     0.668500000000     0          
O        O      0.070133333333     0.217900000000     0.625000000000     0          
O        O      0.233366666667     0.282300000000     0.500000000000     0          
O        O      0.210233333333     0.280633333333     0.581500000000     0          
O        O      0.147766666667     0.263200000000     0.625000000000     0          
O        O      0.070400000000     0.123100000000     0.668500000000     0          
O        O      0.052700000000     0.262933333333     0.581500000000     0          
O        O      0.210233333333     0.280633333333     0.668500000000     0          
O        O      0.099966666667     0.048933333333     0.750000000000     0          
O        O      0.123100000000     0.070400000000     0.831500000000     0          
O        O      0.070733333333     0.000000000000     0.815250000000     0          
O        O      0.054766666667     0.054766666667     0.807575000000     0          
O        O      0.129033333333     0.129033333333     0.875000000000     0          
O        O      0.185566666667     0.115433333333     0.875000000000     0          
O        O      0.282300000000     0.233366666667     0.750000000000     0          
O        O      0.280633333333     0.210233333333     0.918500000000     0          
O        O      0.262600000000     0.262600000000     0.934750000000     0          
O        O      0.000000000000     0.278566666667     0.942425000000     0          
O        O      0.000000000000     0.204300000000     0.875000000000     0          
O        O      0.263200000000     0.147766666667     0.875000000000     0          
O        O      0.284400000000     0.051033333333     0.750000000000     0          
O        O      0.262933333333     0.052700000000     0.831500000000     0          
O        O      0.000000000000     0.070733333333     0.815250000000     0          
O        O      0.278566666667     0.000000000000     0.807575000000     0          
O        O      0.204300000000     0.000000000000     0.875000000000     0          
O        O      0.217900000000     0.070133333333     0.875000000000     0          
O        O      0.123100000000     0.070400000000     0.918500000000     0          
O        O      0.070733333333     0.000000000000     0.934750000000     0          
O        O      0.054766666667     0.054766666667     0.942425000000     0          
O        O      0.280633333333     0.210233333333     0.831500000000     0          
O        O      0.262600000000     0.262600000000     0.815250000000     0          
O        O      0.000000000000     0.278566666667     0.807575000000     0          
O        O      0.262933333333     0.052700000000     0.918500000000     0          
O        O      0.000000000000     0.070733333333     0.934750000000     0          
O        O      0.278566666667     0.000000000000     0.942425000000     0          
O        O      0.048933333333     0.099966666667     0.750000000000     0          
O        O      0.070400000000     0.123100000000     0.831500000000     0          
O        O      0.115433333333     0.185566666667     0.875000000000     0          
O        O      0.051033333333     0.284400000000     0.750000000000     0          
O        O      0.052700000000     0.262933333333     0.918500000000     0          
O        O      0.070133333333     0.217900000000     0.875000000000     0          
O        O      0.233366666667     0.282300000000     0.750000000000     0          
O        O      0.210233333333     0.280633333333     0.831500000000     0          
O        O      0.147766666667     0.263200000000     0.875000000000     0          
O        O      0.070400000000     0.123100000000     0.918500000000     0          
O        O      0.052700000000     0.262933333333     0.831500000000     0          
O        O      0.210233333333     0.280633333333     0.918500000000     0          
O        O      0.099966666667     0.382266666667     0.000000000000     0          
O        O      0.123100000000     0.403733333333     0.081500000000     0          
O        O      0.070733333333     0.333333333333     0.065250000000     0          
O        O      0.054766666667     0.388100000000     0.057575000000     0          
O        O      0.129033333333     0.462366666667     0.125000000000     0          
O        O      0.185566666667     0.448766666667     0.125000000000     0          
O        O      0.282300000000     0.566700000000     0.000000000000     0          
O        O      0.280633333333     0.543566666667     0.168500000000     0          
O        O      0.262600000000     0.595933333333     0.184750000000     0          
O        O      0.000000000000     0.611900000000     0.192425000000     0          
O        O      0.000000000000     0.537633333333     0.125000000000     0          
O        O      0.263200000000     0.481100000000     0.125000000000     0          
O        O      0.284400000000     0.384366666667     0.000000000000     0          
O        O      0.262933333333     0.386033333333     0.081500000000     0          
O        O      0.000000000000     0.404066666667     0.065250000000     0          
O        O      0.278566666667     0.333333333333     0.057575000000     0          
O        O      0.204300000000     0.333333333333     0.125000000000     0          
O        O      0.217900000000     0.403466666667     0.125000000000     0          
O        O      0.123100000000     0.403733333333     0.168500000000     0          
O        O      0.070733333333     0.333333333333     0.184750000000     0          
O        O      0.054766666667     0.388100000000     0.192425000000     0          
O        O      0.280633333333     0.543566666667     0.081500000000     0          
O        O      0.262600000000     0.595933333333     0.065250000000     0          
O        O      0.000000000000     0.611900000000     0.057575000000     0          
O        O      0.262933333333     0.386033333333     0.168500000000     0          
O        O      0.000000000000     0.404066666667     0.184750000000     0          
O        O      0.278566666667     0.333333333333     0.192425000000     0          
O        O      0.048933333333     0.433300000000     0.000000000000     0          
O        O      0.070400000000     0.456433333333     0.081500000000     0          
O        O      0.115433333333     0.518900000000     0.125000000000     0          
O        O      0.051033333333     0.617733333333     0.000000000000     0          
O        O      0.052700000000     0.596266666667     0.168500000000     0          
O        O      0.070133333333     0.551233333333     0.125000000000     0          
O        O      0.233366666667     0.615633333333     0.000000000000     0          
O        O      0.210233333333     0.613966666667     0.081500000000     0          
O        O      0.147766666667     0.596533333333     0.125000000000     0          
O        O      0.070400000000     0.456433333333     0.168500000000     0          
O        O      0.052700000000     0.596266666667     0.081500000000     0          
O        O      0.210233333333     0.613966666667     0.168500000000     0          
O        O      0.099966666667     0.382266666667     0.250000000000     0          
O        O      0.123100000000     0.403733333333     0.331500000000     0          
O        O      0.070733333333     0.333333333333     0.315250000000     0          
O        O      0.054766666667     0.388100000000     0.307575000000     0          
O        O      0.129033333333     0.462366666667     0.375000000000     0          
O        O      0.185566666667     0.448766666667     0.375000000000     0          
O        O      0.282300000000     0.566700000000     0.250000000000     0          
O        O      0.280633333333     0.543566666667     0.418500000000     0          
O        O      0.262600000000     0.595933333333     0.434750000000     0          
O        O      0.000000000000     0.611900000000     0.442425000000     0          
O        O      0.000000000000     0.537633333333     0.375000000000     0          
O        O      0.263200000000     0.481100000000     0.375000000000     0          
O        O      0.284400000000     0.384366666667     0.250000000000     0          
O        O      0.262933333333     0.386033333333     0.331500000000     0          
O        O      0.000000000000     0.404066666667     0.315250000000     0          
O        O      0.278566666667     0.333333333333     0.307575000000     0          
O        O      0.204300000000     0.333333333333     0.375000000000     0          
O        O      0.217900000000     0.403466666667     0.375000000000     0          
O        O      0.123100000000     0.403733333333     0.418500000000     0          
O        O      0.070733333333     0.333333333333     0.434750000000     0          
O        O      0.054766666667     0.388100000000     0.442425000000     0          
O        O      0.280633333333     0.543566666667     0.331500000000     0          
O        O      0.262600000000     0.595933333333     0.315250000000     0          
O        O      0.000000000000     0.611900000000     0.307575000000     0          
O        O      0.262933333333     0.386033333333     0.418500000000     0          
O        O      0.000000000000     0.404066666667     0.434750000000     0          
O        O      0.278566666667     0.333333333333     0.442425000000     0          
O        O      0.048933333333     0.433300000000     0.250000000000     0          
O        O      0.070400000000     0.456433333333     0.331500000000     0          
O        O      0.115433333333     0.518900000000     0.375000000000     0          
O        O      0.051033333333     0.617733333333     0.250000000000     0          
O        O      0.052700000000     0.596266666667     0.418500000000     0          
O        O      0.070133333333     0.551233333333     0.375000000000     0          
O        O      0.233366666667     0.615633333333     0.250000000000     0          
O        O      0.210233333333     0.613966666667     0.331500000000     0          
O        O      0.147766666667     0.596533333333     0.375000000000     0          
O        O      0.070400000000     0.456433333333     0.418500000000     0          
O        O      0.052700000000     0.596266666667     0.331500000000     0          
O        O      0.210233333333     0.613966666667     0.418500000000     0          
O        O      0.099966666667     0.382266666667     0.500000000000     0          
O        O      0.123100000000     0.403733333333     0.581500000000     0          
O        O      0.070733333333     0.333333333333     0.565250000000     0          
O        O      0.054766666667     0.388100000000     0.557575000000     0          
O        O      0.129033333333     0.462366666667     0.625000000000     0          
O        O      0.185566666667     0.448766666667     0.625000000000     0          
O        O      0.282300000000     0.566700000000     0.500000000000     0          
O        O      0.280633333333     0.543566666667     0.668500000000     0          
O        O      0.262600000000     0.595933333333     0.684750000000     0          
O        O      0.000000000000     0.611900000000     0.692425000000     0          
O        O      0.000000000000     0.537633333333     0.625000000000     0          
O        O      0.263200000000     0.481100000000     0.625000000000     0          
O        O      0.284400000000     0.384366666667     0.500000000000     0          
O        O      0.262933333333     0.386033333333     0.581500000000     0          
O        O      0.000000000000     0.404066666667     0.565250000000     0          
O        O      0.278566666667     0.333333333333     0.557575000000     0          
O        O      0.204300000000     0.333333333333     0.625000000000     0          
O        O      0.217900000000     0.403466666667     0.625000000000     0          
O        O      0.123100000000     0.403733333333     0.668500000000     0          
O        O      0.070733333333     0.333333333333     0.684750000000     0          
O        O      0.054766666667     0.388100000000     0.692425000000     0          
O        O      0.280633333333     0.543566666667     0.581500000000     0          
O        O      0.262600000000     0.595933333333     0.565250000000     0          
O        O      0.000000000000     0.611900000000     0.557575000000     0          
O        O      0.262933333333     0.386033333333     0.668500000000     0          
O        O      0.000000000000     0.404066666667     0.684750000000     0          
O        O      0.278566666667     0.333333333333     0.692425000000     0          
O        O      0.048933333333     0.433300000000     0.500000000000     0          
O        O      0.070400000000     0.456433333333     0.581500000000     0          
O        O      0.115433333333     0.518900000000     0.625000000000     0          
O        O      0.051033333333     0.617733333333     0.500000000000     0          
O        O      0.052700000000     0.596266666667     0.668500000000     0          
O        O      0.070133333333     0.551233333333     0.625000000000     0          
O        O      0.233366666667     0.615633333333     0.500000000000     0          
O        O      0.210233333333     0.613966666667     0.581500000000     0          
O        O      0.147766666667     0.596533333333     0.625000000000     0          
O        O      0.070400000000     0.456433333333     0.668500000000     0          
O        O      0.052700000000     0.596266666667     0.581500000000     0          
O        O      0.210233333333     0.613966666667     0.668500000000     0          
O        O      0.099966666667     0.382266666667     0.750000000000     0          
O        O      0.123100000000     0.403733333333     0.831500000000     0          
O        O      0.070733333333     0.333333333333     0.815250000000     0          
O        O      0.054766666667     0.388100000000     0.807575000000     0          
O        O      0.129033333333     0.462366666667     0.875000000000     0          
O        O      0.185566666667     0.448766666667     0.875000000000     0          
O        O      0.282300000000     0.566700000000     0.750000000000     0          
O        O      0.280633333333     0.543566666667     0.918500000000     0          
O        O      0.262600000000     0.595933333333     0.934750000000     0          
O        O      0.000000000000     0.611900000000     0.942425000000     0          
O        O      0.000000000000     0.537633333333     0.875000000000     0          
O        O      0.263200000000     0.481100000000     0.875000000000     0          
O        O      0.284400000000     0.384366666667     0.750000000000     0          
O        O      0.262933333333     0.386033333333     0.831500000000     0          
O        O      0.000000000000     0.404066666667     0.815250000000     0          
O        O      0.278566666667     0.333333333333     0.807575000000     0          
O        O      0.204300000000     0.333333333333     0.875000000000     0          
O        O      0.217900000000     0.403466666667     0.875000000000     0          
O        O      0.123100000000     0.403733333333     0.918500000000     0          
O        O      0.070733333333     0.333333333333     0.934750000000     0          
O        O      0.054766666667     0.388100000000     0.942425000000     0          
O        O      0.280633333333     0.543566666667     0.831500000000     0          
O        O      0.262600000000     0.595933333333     0.815250000000     0          
O        O      0.000000000000     0.611900000000     0.807575000000     0          
O        O      0.262933333333     0.386033333333     0.918500000000     0          
O        O      0.000000000000     0.404066666667     0.934750000000     0          
O        O      0.278566666667     0.333333333333     0.942425000000     0          
O        O      0.048933333333     0.433300000000     0.750000000000     0          
O        O      0.070400000000     0.456433333333     0.831500000000     0          
O        O      0.115433333333     0.518900000000     0.875000000000     0          
O        O      0.051033333333     0.617733333333     0.750000000000     0          
O        O      0.052700000000     0.596266666667     0.918500000000     0          
O        O      0.070133333333     0.551233333333     0.875000000000     0          
O        O      0.233366666667     0.615633333333     0.750000000000     0          
O        O      0.210233333333     0.613966666667     0.831500000000     0          
O        O      0.147766666667     0.596533333333     0.875000000000     0          
O        O      0.070400000000     0.456433333333     0.918500000000     0          
O        O      0.052700000000     0.596266666667     0.831500000000     0          
O        O      0.210233333333     0.613966666667     0.918500000000     0          
O        O      0.099966666667     0.715600000000     0.000000000000     0          
O        O      0.123100000000     0.737066666667     0.081500000000     0          
O        O      0.070733333333     0.666666666667     0.065250000000     0          
O        O      0.054766666667     0.721433333333     0.057575000000     0          
O        O      0.129033333333     0.795700000000     0.125000000000     0          
O        O      0.185566666667     0.782100000000     0.125000000000     0          
O        O      0.282300000000     0.900033333333     0.000000000000     0          
O        O      0.280633333333     0.876900000000     0.168500000000     0          
O        O      0.262600000000     0.929266666667     0.184750000000     0          
O        O      0.000000000000     0.945233333333     0.192425000000     0          
O        O      0.000000000000     0.870966666667     0.125000000000     0          
O        O      0.263200000000     0.814433333333     0.125000000000     0          
O        O      0.284400000000     0.717700000000     0.000000000000     0          
O        O      0.262933333333     0.719366666667     0.081500000000     0          
O        O      0.000000000000     0.737400000000     0.065250000000     0          
O        O      0.278566666667     0.666666666667     0.057575000000     0          
O        O      0.204300000000     0.666666666667     0.125000000000     0          
O        O      0.217900000000     0.736800000000     0.125000000000     0          
O        O      0.123100000000     0.737066666667     0.168500000000     0          
O        O      0.070733333333     0.666666666667     0.184750000000     0          
O        O      0.054766666667     0.721433333333     0.192425000000     0          
O        O      0.280633333333     0.876900000000     0.081500000000     0          
O        O      0.262600000000     0.929266666667     0.065250000000     0          
O        O      0.000000000000     0.945233333333     0.057575000000     0          
O        O      0.262933333333     0.719366666667     0.168500000000     0          
O        O      0.000000000000     0.737400000000     0.184750000000     0          
O        O      0.278566666667     0.666666666667     0.192425000000     0          
O        O      0.048933333333     0.766633333333     0.000000000000     0          
O        O      0.070400000000     0.789766666667     0.081500000000     0          
O        O      0.115433333333     0.852233333333     0.125000000000     0          
O        O      0.051033333333     0.951066666667     0.000000000000     0          
O        O      0.052700000000     0.929600000000     0.168500000000     0          
O        O      0.070133333333     0.884566666667     0.125000000000     0          
O        O      0.233366666667     0.948966666667     0.000000000000     0          
O        O      0.210233333333     0.947300000000     0.081500000000     0          
O        O      0.147766666667     0.929866666667     0.125000000000     0          
O        O      0.070400000000     0.789766666667     0.168500000000     0          
O        O      0.052700000000     0.929600000000     0.081500000000     0          
O        O      0.210233333333     0.947300000000     0.168500000000     0          
O        O      0.099966666667     0.715600000000     0.250000000000     0          
O        O      0.123100000000     0.737066666667     0.331500000000     0          
O        O      0.070733333333     0.666666666667     0.315250000000     0          
O        O      0.054766666667     0.721433333333     0.307575000000     0          
O        O      0.129033333333     0.795700000000     0.375000000000     0          
O        O      0.185566666667     0.782100000000     0.375000000000     0          
O        O      0.282300000000     0.900033333333     0.250000000000     0          
O        O      0.280633333333     0.876900000000     0.418500000000     0          
O        O      0.262600000000     0.929266666667     0.434750000000     0          
O        O      0.000000000000     0.945233333333     0.442425000000     0          
O        O      0.000000000000     0.870966666667     0.375000000000     0          
O        O      0.263200000000     0.814433333333     0.375000000000     0          
O        O      0.284400000000     0.717700000000     0.250000000000     0          
O        O      0.262933333333     0.719366666667     0.331500000000     0          
O        O      0.000000000000     0.737400000000     0.315250000000     0          
O        O      0.278566666667     0.666666666667     0.307575000000     0          
O        O      0.204300000000     0.666666666667     0.375000000000     0          
O        O      0.217900000000     0.736800000000     0.375000000000     0          
O        O      0.123100000000     0.737066666667     0.418500000000     0          
O        O      0.070733333333     0.666666666667     0.434750000000     0          
O        O      0.054766666667     0.721433333333     0.442425000000     0          
O        O      0.280633333333     0.876900000000     0.331500000000     0          
O        O      0.262600000000     0.929266666667     0.315250000000     0          
O        O      0.000000000000     0.945233333333     0.307575000000     0          
O        O      0.262933333333     0.719366666667     0.418500000000     0          
O        O      0.000000000000     0.737400000000     0.434750000000     0          
O        O      0.278566666667     0.666666666667     0.442425000000     0          
O        O      0.048933333333     0.766633333333     0.250000000000     0          
O        O      0.070400000000     0.789766666667     0.331500000000     0          
O        O      0.115433333333     0.852233333333     0.375000000000     0          
O        O      0.051033333333     0.951066666667     0.250000000000     0          
O        O      0.052700000000     0.929600000000     0.418500000000     0          
O        O      0.070133333333     0.884566666667     0.375000000000     0          
O        O      0.233366666667     0.948966666667     0.250000000000     0          
O        O      0.210233333333     0.947300000000     0.331500000000     0          
O        O      0.147766666667     0.929866666667     0.375000000000     0          
O        O      0.070400000000     0.789766666667     0.418500000000     0          
O        O      0.052700000000     0.929600000000     0.331500000000     0          
O        O      0.210233333333     0.947300000000     0.418500000000     0          
O        O      0.099966666667     0.715600000000     0.500000000000     0          
O        O      0.123100000000     0.737066666667     0.581500000000     0          
O        O      0.070733333333     0.666666666667     0.565250000000     0          
O        O      0.054766666667     0.721433333333     0.557575000000     0          
O        O      0.129033333333     0.795700000000     0.625000000000     0          
O        O      0.185566666667     0.782100000000     0.625000000000     0          
O        O      0.282300000000     0.900033333333     0.500000000000     0          
O        O      0.280633333333     0.876900000000     0.668500000000     0          
O        O      0.262600000000     0.929266666667     0.684750000000     0          
O        O      0.000000000000     0.945233333333     0.692425000000     0          
O        O      0.000000000000     0.870966666667     0.625000000000     0          
O        O      0.263200000000     0.814433333333     0.625000000000     0          
O        O      0.284400000000     0.717700000000     0.500000000000     0          
O        O      0.262933333333     0.719366666667     0.581500000000     0          
O        O      0.000000000000     0.737400000000     0.565250000000     0          
O        O      0.278566666667     0.666666666667     0.557575000000     0          
O        O      0.204300000000     0.666666666667     0.625000000000     0          
O        O      0.217900000000     0.736800000000     0.625000000000     0          
O        O      0.123100000000     0.737066666667     0.668500000000     0          
O        O      0.070733333333     0.666666666667     0.684750000000     0          
O        O      0.054766666667     0.721433333333     0.692425000000     0          
O        O      0.280633333333     0.876900000000     0.581500000000     0          
O        O      0.262600000000     0.929266666667     0.565250000000     0          
O        O      0.000000000000     0.945233333333     0.557575000000     0          
O        O      0.262933333333     0.719366666667     0.668500000000     0          
O        O      0.000000000000     0.737400000000     0.684750000000     0          
O        O      0.278566666667     0.666666666667     0.692425000000     0          
O        O      0.048933333333     0.766633333333     0.500000000000     0          
O        O      0.070400000000     0.789766666667     0.581500000000     0          
O        O      0.115433333333     0.852233333333     0.625000000000     0          
O        O      0.051033333333     0.951066666667     0.500000000000     0          
O        O      0.052700000000     0.929600000000     0.668500000000     0          
O        O      0.070133333333     0.884566666667     0.625000000000     0          
O        O      0.233366666667     0.948966666667     0.500000000000     0          
O        O      0.210233333333     0.947300000000     0.581500000000     0          
O        O      0.147766666667     0.929866666667     0.625000000000     0          
O        O      0.070400000000     0.789766666667     0.668500000000     0          
O        O      0.052700000000     0.929600000000     0.581500000000     0          
O        O      0.210233333333     0.947300000000     0.668500000000     0          
O        O      0.099966666667     0.715600000000     0.750000000000     0          
O        O      0.123100000000     0.737066666667     0.831500000000     0          
O        O      0.070733333333     0.666666666667     0.815250000000     0          
O        O      0.054766666667     0.721433333333     0.807575000000     0          
O        O      0.129033333333     0.795700000000     0.875000000000     0          
O        O      0.185566666667     0.782100000000     0.875000000000     0          
O        O      0.282300000000     0.900033333333     0.750000000000     0          
O        O      0.280633333333     0.876900000000     0.918500000000     0          
O        O      0.262600000000     0.929266666667     0.934750000000     0          
O        O      0.000000000000     0.945233333333     0.942425000000     0          
O        O      0.000000000000     0.870966666667     0.875000000000     0          
O        O      0.263200000000     0.814433333333     0.875000000000     0          
O        O      0.284400000000     0.717700000000     0.750000000000     0          
O        O      0.262933333333     0.719366666667     0.831500000000     0          
O        O      0.000000000000     0.737400000000     0.815250000000     0          
O        O      0.278566666667     0.666666666667     0.807575000000     0          
O        O      0.204300000000     0.666666666667     0.875000000000     0          
O        O      0.217900000000     0.736800000000     0.875000000000     0          
O        O      0.123100000000     0.737066666667     0.918500000000     0          
O        O      0.070733333333     0.666666666667     0.934750000000     0          
O        O      0.054766666667     0.721433333333     0.942425000000     0          
O        O      0.280633333333     0.876900000000     0.831500000000     0          
O        O      0.262600000000     0.929266666667     0.815250000000     0          
O        O      0.000000000000     0.945233333333     0.807575000000     0          
O        O      0.262933333333     0.719366666667     0.918500000000     0          
O        O      0.000000000000     0.737400000000     0.934750000000     0          
O        O      0.278566666667     0.666666666667     0.942425000000     0          
O        O      0.048933333333     0.766633333333     0.750000000000     0          
O        O      0.070400000000     0.789766666667     0.831500000000     0          
O        O      0.115433333333     0.852233333333     0.875000000000     0          
O        O      0.051033333333     0.951066666667     0.750000000000     0          
O        O      0.052700000000     0.929600000000     0.918500000000     0          
O        O      0.070133333333     0.884566666667     0.875000000000     0          
O        O      0.233366666667     0.948966666667     0.750000000000     0          
O        O      0.210233333333     0.947300000000     0.831500000000     0          
O        O      0.147766666667     0.929866666667     0.875000000000     0          
O        O      0.070400000000     0.789766666667     0.918500000000     0          
O        O      0.052700000000     0.929600000000     0.831500000000     0          
O        O      0.210233333333     0.947300000000     0.918500000000     0          
O        O      0.433300000000     0.048933333333     0.000000000000     0          
O        O      0.456433333333     0.070400000000     0.081500000000     0          
O        O      0.404066666667     0.000000000000     0.065250000000     0          
O        O      0.388100000000     0.054766666667     0.057575000000     0          
O        O      0.462366666667     0.129033333333     0.125000000000     0          
O        O      0.518900000000     0.115433333333     0.125000000000     0          
O        O      0.615633333333     0.233366666667     0.000000000000     0          
O        O      0.613966666667     0.210233333333     0.168500000000     0          
O        O      0.595933333333     0.262600000000     0.184750000000     0          
O        O      0.333333333333     0.278566666667     0.192425000000     0          
O        O      0.333333333333     0.204300000000     0.125000000000     0          
O        O      0.596533333333     0.147766666667     0.125000000000     0          
O        O      0.617733333333     0.051033333333     0.000000000000     0          
O        O      0.596266666667     0.052700000000     0.081500000000     0          
O        O      0.333333333333     0.070733333333     0.065250000000     0          
O        O      0.611900000000     0.000000000000     0.057575000000     0          
O        O      0.537633333333     0.000000000000     0.125000000000     0          
O        O      0.551233333333     0.070133333333     0.125000000000     0          
O        O      0.456433333333     0.070400000000     0.168500000000     0          
O        O      0.404066666667     0.000000000000     0.184750000000     0          
O        O      0.388100000000     0.054766666667     0.192425000000     0          
O        O      0.613966666667     0.210233333333     0.081500000000     0          
O        O      0.595933333333     0.262600000000     0.065250000000     0          
O        O      0.333333333333     0.278566666667     0.057575000000     0          
O        O      0.596266666667     0.052700000000     0.168500000000     0          
O        O      0.333333333333     0.070733333333     0.184750000000     0          
O        O      0.611900000000     0.000000000000     0.192425000000     0          
O        O      0.382266666667     0.099966666667     0.000000000000     0          
O        O      0.403733333333     0.123100000000     0.081500000000     0          
O        O      0.448766666667     0.185566666667     0.125000000000     0          
O        O      0.384366666667     0.284400000000     0.000000000000     0          
O        O      0.386033333333     0.262933333333     0.168500000000     0          
O        O      0.403466666667     0.217900000000     0.125000000000     0          
O        O      0.566700000000     0.282300000000     0.000000000000     0          
O        O      0.543566666667     0.280633333333     0.081500000000     0          
O        O      0.481100000000     0.263200000000     0.125000000000     0          
O        O      0.403733333333     0.123100000000     0.168500000000     0          
O        O      0.386033333333     0.262933333333     0.081500000000     0          
O        O      0.543566666667     0.280633333333     0.168500000000     0          
O        O      0.433300000000     0.048933333333     0.250000000000     0          
O        O      0.456433333333     0.070400000000     0.331500000000     0          
O        O      0.404066666667     0.000000000000     0.315250000000     0          
O        O      0.388100000000     0.054766666667     0.307575000000     0          
O        O      0.462366666667     0.129033333333     0.375000000000     0          
O        O      0.518900000000     0.115433333333     0.375000000000     0          
O        O      0.615633333333     0.233366666667     0.250000000000     0          
O        O      0.613966666667     0.210233333333     0.418500000000     0          
O        O      0.595933333333     0.262600000000     0.434750000000     0          
O        O      0.333333333333     0.278566666667     0.442425000000     0          
O        O      0.333333333333     0.204300000000     0.375000000000     0          
O        O      0.596533333333     0.147766666667     0.375000000000     0          
O        O      0.617733333333     0.051033333333     0.250000000000     0          
O        O      0.596266666667     0.052700000000     0.331500000000     0          
O        O      0.333333333333     0.070733333333     0.315250000000     0          
O        O      0.611900000000     0.000000000000     0.307575000000     0          
O        O      0.537633333333     0.000000000000     0.375000000000     0          
O        O      0.551233333333     0.070133333333     0.375000000000     0          
O        O      0.456433333333     0.070400000000     0.418500000000     0          
O        O      0.404066666667     0.000000000000     0.434750000000     0          
O        O      0.388100000000     0.054766666667     0.442425000000     0          
O        O      0.613966666667     0.210233333333     0.331500000000     0          
O        O      0.595933333333     0.262600000000     0.315250000000     0          
O        O      0.333333333333     0.278566666667     0.307575000000     0          
O        O      0.596266666667     0.052700000000     0.418500000000     0          
O        O      0.333333333333     0.070733333333     0.434750000000     0          
O        O      0.611900000000     0.000000000000     0.442425000000     0          
O        O      0.382266666667     0.099966666667     0.250000000000     0          
O        O      0.403733333333     0.123100000000     0.331500000000     0          
O        O      0.448766666667     0.185566666667     0.375000000000     0          
O        O      0.384366666667     0.284400000000     0.250000000000     0          
O        O      0.386033333333     0.262933333333     0.418500000000     0          
O        O      0.403466666667     0.217900000000     0.375000000000     0          
O        O      0.566700000000     0.282300000000     0.250000000000     0          
O        O      0.543566666667     0.280633333333     0.331500000000     0          
O        O      0.481100000000     0.263200000000     0.375000000000     0          
O        O      0.403733333333     0.123100000000     0.418500000000     0          
O        O      0.386033333333     0.262933333333     0.331500000000     0          
O        O      0.543566666667     0.280633333333     0.418500000000     0          
O        O      0.433300000000     0.048933333333     0.500000000000     0          
O        O      0.456433333333     0.070400000000     0.581500000000     0          
O        O      0.404066666667     0.000000000000     0.565250000000     0          
O        O      0.388100000000     0.054766666667     0.557575000000     0          
O        O      0.462366666667     0.129033333333     0.625000000000     0          
O        O      0.518900000000     0.115433333333     0.625000000000     0          
O        O      0.615633333333     0.233366666667     0.500000000000     0          
O        O      0.613966666667     0.210233333333     0.668500000000     0          
O        O      0.595933333333     0.262600000000     0.684750000000     0          
O        O      0.333333333333     0.278566666667     0.692425000000     0          
O        O      0.333333333333     0.204300000000     0.625000000000     0          
O        O      0.596533333333     0.147766666667     0.625000000000     0          
O        O      0.617733333333     0.051033333333     0.500000000000     0          
O        O      0.596266666667     0.052700000000     0.581500000000     0          
O        O      0.333333333333     0.070733333333     0.565250000000     0          
O        O      0.611900000000     0.000000000000     0.557575000000     0          
O        O      0.537633333333     0.000000000000     0.625000000000     0          
O        O      0.551233333333     0.070133333333     0.625000000000     0          
O        O      0.456433333333     0.070400000000     0.668500000000     0          
O        O      0.404066666667     0.000000000000     0.684750000000     0          
O        O      0.388100000000     0.054766666667     0.692425000000     0          
O        O      0.613966666667     0.210233333333     0.581500000000     0          
O        O      0.595933333333     0.262600000000     0.565250000000     0          
O        O      0.333333333333     0.278566666667     0.557575000000     0          
O        O      0.596266666667     0.052700000000     0.668500000000     0          
O        O      0.333333333333     0.070733333333     0.684750000000     0          
O        O      0.611900000000     0.000000000000     0.692425000000     0          
O        O      0.382266666667     0.099966666667     0.500000000000     0          
O        O      0.403733333333     0.123100000000     0.581500000000     0          
O        O      0.448766666667     0.185566666667     0.625000000000     0          
O        O      0.384366666667     0.284400000000     0.500000000000     0          
O        O      0.386033333333     0.262933333333     0.668500000000     0          
O        O      0.403466666667     0.217900000000     0.625000000000     0          
O        O      0.566700000000     0.282300000000     0.500000000000     0          
O        O      0.543566666667     0.280633333333     0.581500000000     0          
O        O      0.481100000000     0.263200000000     0.625000000000     0          
O        O      0.403733333333     0.123100000000     0.668500000000     0          
O        O      0.386033333333     0.262933333333     0.581500000000     0          
O        O      0.543566666667     0.280633333333     0.668500000000     0          
O        O      0.433300000000     0.048933333333     0.750000000000     0          
O        O      0.456433333333     0.070400000000     0.831500000000     0          
O        O      0.404066666667     0.000000000000     0.815250000000     0          
O        O      0.388100000000     0.054766666667     0.807575000000     0          
O        O      0.462366666667     0.129033333333     0.875000000000     0          
O        O      0.518900000000     0.115433333333     0.875000000000     0          
O        O      0.615633333333     0.233366666667     0.750000000000     0          
O        O      0.613966666667     0.210233333333     0.918500000000     0          
O        O      0.595933333333     0.262600000000     0.934750000000     0          
O        O      0.333333333333     0.278566666667     0.942425000000     0          
O        O      0.333333333333     0.204300000000     0.875000000000     0          
O        O      0.596533333333     0.147766666667     0.875000000000     0          
O        O      0.617733333333     0.051033333333     0.750000000000     0          
O        O      0.596266666667     0.052700000000     0.831500000000     0          
O        O      0.333333333333     0.070733333333     0.815250000000     0          
O        O      0.611900000000     0.000000000000     0.807575000000     0          
O        O      0.537633333333     0.000000000000     0.875000000000     0          
O        O      0.551233333333     0.070133333333     0.875000000000     0          
O        O      0.456433333333     0.070400000000     0.918500000000     0          
O        O      0.404066666667     0.000000000000     0.934750000000     0          
O        O      0.388100000000     0.054766666667     0.942425000000     0          
O        O      0.613966666667     0.210233333333     0.831500000000     0          
O        O      0.595933333333     0.262600000000     0.815250000000     0          
O        O      0.333333333333     0.278566666667     0.807575000000     0          
O        O      0.596266666667     0.052700000000     0.918500000000     0          
O        O      0.333333333333     0.070733333333     0.934750000000     0          
O        O      0.611900000000     0.000000000000     0.942425000000     0          
O        O      0.382266666667     0.099966666667     0.750000000000     0          
O        O      0.403733333333     0.123100000000     0.831500000000     0          
O        O      0.448766666667     0.185566666667     0.875000000000     0          
O        O      0.384366666667     0.284400000000     0.750000000000     0          
O        O      0.386033333333     0.262933333333     0.918500000000     0          
O        O      0.403466666667     0.217900000000     0.875000000000     0          
O        O      0.566700000000     0.282300000000     0.750000000000     0          
O        O      0.543566666667     0.280633333333     0.831500000000     0          
O        O      0.481100000000     0.263200000000     0.875000000000     0          
O        O      0.403733333333     0.123100000000     0.918500000000     0          
O        O      0.386033333333     0.262933333333     0.831500000000     0          
O        O      0.543566666667     0.280633333333     0.918500000000     0          
O        O      0.433300000000     0.382266666667     0.000000000000     0          
O        O      0.456433333333     0.403733333333     0.081500000000     0          
O        O      0.404066666667     0.333333333333     0.065250000000     0          
O        O      0.388100000000     0.388100000000     0.057575000000     0          
O        O      0.462366666667     0.462366666667     0.125000000000     0          
O        O      0.518900000000     0.448766666667     0.125000000000     0          
O        O      0.615633333333     0.566700000000     0.000000000000     0          
O        O      0.613966666667     0.543566666667     0.168500000000     0          
O        O      0.595933333333     0.595933333333     0.184750000000     0          
O        O      0.333333333333     0.611900000000     0.192425000000     0          
O        O      0.333333333333     0.537633333333     0.125000000000     0          
O        O      0.596533333333     0.481100000000     0.125000000000     0          
O        O      0.617733333333     0.384366666667     0.000000000000     0          
O        O      0.596266666667     0.386033333333     0.081500000000     0          
O        O      0.333333333333     0.404066666667     0.065250000000     0          
O        O      0.611900000000     0.333333333333     0.057575000000     0          
O        O      0.537633333333     0.333333333333     0.125000000000     0          
O        O      0.551233333333     0.403466666667     0.125000000000     0          
O        O      0.456433333333     0.403733333333     0.168500000000     0          
O        O      0.404066666667     0.333333333333     0.184750000000     0          
O        O      0.388100000000     0.388100000000     0.192425000000     0          
O        O      0.613966666667     0.543566666667     0.081500000000     0          
O        O      0.595933333333     0.595933333333     0.065250000000     0          
O        O      0.333333333333     0.611900000000     0.057575000000     0          
O        O      0.596266666667     0.386033333333     0.168500000000     0          
O        O      0.333333333333     0.404066666667     0.184750000000     0          
O        O      0.611900000000     0.333333333333     0.192425000000     0          
O        O      0.382266666667     0.433300000000     0.000000000000     0          
O        O      0.403733333333     0.456433333333     0.081500000000     0          
O        O      0.448766666667     0.518900000000     0.125000000000     0          
O        O      0.384366666667     0.617733333333     0.000000000000     0          
O        O      0.386033333333     0.596266666667     0.168500000000     0          
O        O      0.403466666667     0.551233333333     0.125000000000     0          
O        O      0.566700000000     0.615633333333     0.000000000000     0          
O        O      0.543566666667     0.613966666667     0.081500000000     0          
O        O      0.481100000000     0.596533333333     0.125000000000     0          
O        O      0.403733333333     0.456433333333     0.168500000000     0          
O        O      0.386033333333     0.596266666667     0.081500000000     0          
O        O      0.543566666667     0.613966666667     0.168500000000     0          
O        O      0.433300000000     0.382266666667     0.250000000000     0          
O        O      0.456433333333     0.403733333333     0.331500000000     0          
O        O      0.404066666667     0.333333333333     0.315250000000     0          
O        O      0.388100000000     0.388100000000     0.307575000000     0          
O        O      0.462366666667     0.462366666667     0.375000000000     0          
O        O      0.518900000000     0.448766666667     0.375000000000     0          
O        O      0.615633333333     0.566700000000     0.250000000000     0          
O        O      0.613966666667     0.543566666667     0.418500000000     0          
O        O      0.595933333333     0.595933333333     0.434750000000     0          
O        O      0.333333333333     0.611900000000     0.442425000000     0          
O        O      0.333333333333     0.537633333333     0.375000000000     0          
O        O      0.596533333333     0.481100000000     0.375000000000     0          
O        O      0.617733333333     0.384366666667     0.250000000000     0          
O        O      0.596266666667     0.386033333333     0.331500000000     0          
O        O      0.333333333333     0.404066666667     0.315250000000     0          
O        O      0.611900000000     0.333333333333     0.307575000000     0          
O        O      0.537633333333     0.333333333333     0.375000000000     0          
O        O      0.551233333333     0.403466666667     0.375000000000     0          
O        O      0.456433333333     0.403733333333     0.418500000000     0          
O        O      0.404066666667     0.333333333333     0.434750000000     0          
O        O      0.388100000000     0.388100000000     0.442425000000     0          
O        O      0.613966666667     0.543566666667     0.331500000000     0          
O        O      0.595933333333     0.595933333333     0.315250000000     0          
O        O      0.333333333333     0.611900000000     0.307575000000     0          
O        O      0.596266666667     0.386033333333     0.418500000000     0          
O        O      0.333333333333     0.404066666667     0.434750000000     0          
O        O      0.611900000000     0.333333333333     0.442425000000     0          
O        O      0.382266666667     0.433300000000     0.250000000000     0          
O        O      0.403733333333     0.456433333333     0.331500000000     0          
O        O      0.448766666667     0.518900000000     0.375000000000     0          
O        O      0.384366666667     0.617733333333     0.250000000000     0          
O        O      0.386033333333     0.596266666667     0.418500000000     0          
O        O      0.403466666667     0.551233333333     0.375000000000     0          
O        O      0.566700000000     0.615633333333     0.250000000000     0          
O        O      0.543566666667     0.613966666667     0.331500000000     0          
O        O      0.481100000000     0.596533333333     0.375000000000     0          
O        O      0.403733333333     0.456433333333     0.418500000000     0          
O        O      0.386033333333     0.596266666667     0.331500000000     0          
O        O      0.543566666667     0.613966666667     0.418500000000     0          
O        O      0.433300000000     0.382266666667     0.500000000000     0          
O        O      0.456433333333     0.403733333333     0.581500000000     0          
O        O      0.404066666667     0.333333333333     0.565250000000     0          
O        O      0.388100000000     0.388100000000     0.557575000000     0          
O        O      0.462366666667     0.462366666667     0.625000000000     0          
O        O      0.518900000000     0.448766666667     0.625000000000     0          
O        O      0.615633333333     0.566700000000     0.500000000000     0          
O        O      0.613966666667     0.543566666667     0.668500000000     0          
O        O      0.595933333333     0.595933333333     0.684750000000     0          
O        O      0.333333333333     0.611900000000     0.692425000000     0          
O        O      0.333333333333     0.537633333333     0.625000000000     0          
O        O      0.596533333333     0.481100000000     0.625000000000     0          
O        O      0.617733333333     0.384366666667     0.500000000000     0          
O        O      0.596266666667     0.386033333333     0.581500000000     0          
O        O      0.333333333333     0.404066666667     0.565250000000     0          
O        O      0.611900000000     0.333333333333     0.557575000000     0          
O        O      0.537633333333     0.333333333333     0.625000000000     0          
O        O      0.551233333333     0.403466666667     0.625000000000     0          
O        O      0.456433333333     0.403733333333     0.668500000000     0          
O        O      0.404066666667     0.333333333333     0.684750000000     0          
O        O      0.388100000000     0.388100000000     0.692425000000     0          
O        O      0.613966666667     0.543566666667     0.581500000000     0          
O        O      0.595933333333     0.595933333333     0.565250000000     0          
O        O      0.333333333333     0.611900000000     0.557575000000     0          
O        O      0.596266666667     0.386033333333     0.668500000000     0          
O        O      0.333333333333     0.404066666667     0.684750000000     0          
O        O      0.611900000000     0.333333333333     0.692425000000     0          
O        O      0.382266666667     0.433300000000     0.500000000000     0          
O        O      0.403733333333     0.456433333333     0.581500000000     0          
O        O      0.448766666667     0.518900000000     0.625000000000     0          
O        O      0.384366666667     0.617733333333     0.500000000000     0          
O        O      0.386033333333     0.596266666667     0.668500000000     0          
O        O      0.403466666667     0.551233333333     0.625000000000     0          
O        O      0.566700000000     0.615633333333     0.500000000000     0          
O        O      0.543566666667     0.613966666667     0.581500000000     0          
O        O      0.481100000000     0.596533333333     0.625000000000     0          
O        O      0.403733333333     0.456433333333     0.668500000000     0          
O        O      0.386033333333     0.596266666667     0.581500000000     0          
O        O      0.543566666667     0.613966666667     0.668500000000     0          
O        O      0.433300000000     0.382266666667     0.750000000000     0          
O        O      0.456433333333     0.403733333333     0.831500000000     0          
O        O      0.404066666667     0.333333333333     0.815250000000     0          
O        O      0.388100000000     0.388100000000     0.807575000000     0          
O        O      0.462366666667     0.462366666667     0.875000000000     0          
O        O      0.518900000000     0.448766666667     0.875000000000     0          
O        O      0.615633333333     0.566700000000     0.750000000000     0          
O        O      0.613966666667     0.543566666667     0.918500000000     0          
O        O      0.595933333333     0.595933333333     0.934750000000     0          
O        O      0.333333333333     0.611900000000     0.942425000000     0          
O        O      0.333333333333     0.537633333333     0.875000000000     0          
O        O      0.596533333333     0.481100000000     0.875000000000     0          
O        O      0.617733333333     0.384366666667     0.750000000000     0          
O        O      0.596266666667     0.386033333333     0.831500000000     0          
O        O      0.333333333333     0.404066666667     0.815250000000     0          
O        O      0.611900000000     0.333333333333     0.807575000000     0          
O        O      0.537633333333     0.333333333333     0.875000000000     0          
O        O      0.551233333333     0.403466666667     0.875000000000     0          
O        O      0.456433333333     0.403733333333     0.918500000000     0          
O        O      0.404066666667     0.333333333333     0.934750000000     0          
O        O      0.388100000000     0.388100000000     0.942425000000     0          
O        O      0.613966666667     0.543566666667     0.831500000000     0          
O        O      0.595933333333     0.595933333333     0.815250000000     0          
O        O      0.333333333333     0.611900000000     0.807575000000     0          
O        O      0.596266666667     0.386033333333     0.918500000000     0          
O        O      0.333333333333     0.404066666667     0.934750000000     0          
O        O      0.611900000000     0.333333333333     0.942425000000     0          
O        O      0.382266666667     0.433300000000     0.750000000000     0          
O        O      0.403733333333     0.456433333333     0.831500000000     0          
O        O      0.448766666667     0.518900000000     0.875000000000     0          
O        O      0.384366666667     0.617733333333     0.750000000000     0          
O        O      0.386033333333     0.596266666667     0.918500000000     0          
O        O      0.403466666667     0.551233333333     0.875000000000     0          
O        O      0.566700000000     0.615633333333     0.750000000000     0          
O        O      0.543566666667     0.613966666667     0.831500000000     0          
O        O      0.481100000000     0.596533333333     0.875000000000     0          
O        O      0.403733333333     0.456433333333     0.918500000000     0          
O        O      0.386033333333     0.596266666667     0.831500000000     0          
O        O      0.543566666667     0.613966666667     0.918500000000     0          
O        O      0.433300000000     0.715600000000     0.000000000000     0          
O        O      0.456433333333     0.737066666667     0.081500000000     0          
O        O      0.404066666667     0.666666666667     0.065250000000     0          
O        O      0.388100000000     0.721433333333     0.057575000000     0          
O        O      0.462366666667     0.795700000000     0.125000000000     0          
O        O      0.518900000000     0.782100000000     0.125000000000     0          
O        O      0.615633333333     0.900033333333     0.000000000000     0          
O        O      0.613966666667     0.876900000000     0.168500000000     0          
O        O      0.595933333333     0.929266666667     0.184750000000     0          
O        O      0.333333333333     0.945233333333     0.192425000000     0          
O        O      0.333333333333     0.870966666667     0.125000000000     0          
O        O      0.596533333333     0.814433333333     0.125000000000     0          
O        O      0.617733333333     0.717700000000     0.000000000000     0          
O        O      0.596266666667     0.719366666667     0.081500000000     0          
O        O      0.333333333333     0.737400000000     0.065250000000     0          
O        O      0.611900000000     0.666666666667     0.057575000000     0          
O        O      0.537633333333     0.666666666667     0.125000000000     0          
O        O      0.551233333333     0.736800000000     0.125000000000     0          
O        O      0.456433333333     0.737066666667     0.168500000000     0          
O        O      0.404066666667     0.666666666667     0.184750000000     0          
O        O      0.388100000000     0.721433333333     0.192425000000     0          
O        O      0.613966666667     0.876900000000     0.081500000000     0          
O        O      0.595933333333     0.929266666667     0.065250000000     0          
O        O      0.333333333333     0.945233333333     0.057575000000     0          
O        O      0.596266666667     0.719366666667     0.168500000000     0          
O        O      0.333333333333     0.737400000000     0.184750000000     0          
O        O      0.611900000000     0.666666666667     0.192425000000     0          
O        O      0.382266666667     0.766633333333     0.000000000000     0          
O        O      0.403733333333     0.789766666667     0.081500000000     0          
O        O      0.448766666667     0.852233333333     0.125000000000     0          
O        O      0.384366666667     0.951066666667     0.000000000000     0          
O        O      0.386033333333     0.929600000000     0.168500000000     0          
O        O      0.403466666667     0.884566666667     0.125000000000     0          
O        O      0.566700000000     0.948966666667     0.000000000000     0          
O        O      0.543566666667     0.947300000000     0.081500000000     0          
O        O      0.481100000000     0.929866666667     0.125000000000     0          
O        O      0.403733333333     0.789766666667     0.168500000000     0          
O        O      0.386033333333     0.929600000000     0.081500000000     0          
O        O      0.543566666667     0.947300000000     0.168500000000     0          
O        O      0.433300000000     0.715600000000     0.250000000000     0          
O        O      0.456433333333     0.737066666667     0.331500000000     0          
O        O      0.404066666667     0.666666666667     0.315250000000     0          
O        O      0.388100000000     0.721433333333     0.307575000000     0          
O        O      0.462366666667     0.795700000000     0.375000000000     0          
O        O      0.518900000000     0.782100000000     0.375000000000     0          
O        O      0.615633333333     0.900033333333     0.250000000000     0          
O        O      0.613966666667     0.876900000000     0.418500000000     0          
O        O      0.595933333333     0.929266666667     0.434750000000     0          
O        O      0.333333333333     0.945233333333     0.442425000000     0          
O        O      0.333333333333     0.870966666667     0.375000000000     0          
O        O      0.596533333333     0.814433333333     0.375000000000     0          
O        O      0.617733333333     0.717700000000     0.250000000000     0          
O        O      0.596266666667     0.719366666667     0.331500000000     0          
O        O      0.333333333333     0.737400000000     0.315250000000     0          
O        O      0.611900000000     0.666666666667     0.307575000000     0          
O        O      0.537633333333     0.666666666667     0.375000000000     0          
O        O      0.551233333333     0.736800000000     0.375000000000     0          
O        O      0.456433333333     0.737066666667     0.418500000000     0          
O        O      0.404066666667     0.666666666667     0.434750000000     0          
O        O      0.388100000000     0.721433333333     0.442425000000     0          
O        O      0.613966666667     0.876900000000     0.331500000000     0          
O        O      0.595933333333     0.929266666667     0.315250000000     0          
O        O      0.333333333333     0.945233333333     0.307575000000     0          
O        O      0.596266666667     0.719366666667     0.418500000000     0          
O        O      0.333333333333     0.737400000000     0.434750000000     0          
O        O      0.611900000000     0.666666666667     0.442425000000     0          
O        O      0.382266666667     0.766633333333     0.250000000000     0          
O        O      0.403733333333     0.789766666667     0.331500000000     0          
O        O      0.448766666667     0.852233333333     0.375000000000     0          
O        O      0.384366666667     0.951066666667     0.250000000000     0          
O        O      0.386033333333     0.929600000000     0.418500000000     0          
O        O      0.403466666667     0.884566666667     0.375000000000     0          
O        O      0.566700000000     0.948966666667     0.250000000000     0          
O        O      0.543566666667     0.947300000000     0.331500000000     0          
O        O      0.481100000000     0.929866666667     0.375000000000     0          
O        O      0.403733333333     0.789766666667     0.418500000000     0          
O        O      0.386033333333     0.929600000000     0.331500000000     0          
O        O      0.543566666667     0.947300000000     0.418500000000     0          
O        O      0.433300000000     0.715600000000     0.500000000000     0          
O        O      0.456433333333     0.737066666667     0.581500000000     0          
O        O      0.404066666667     0.666666666667     0.565250000000     0          
O        O      0.388100000000     0.721433333333     0.557575000000     0          
O        O      0.462366666667     0.795700000000     0.625000000000     0          
O        O      0.518900000000     0.782100000000     0.625000000000     0          
O        O      0.615633333333     0.900033333333     0.500000000000     0          
O        O      0.613966666667     0.876900000000     0.668500000000     0          
O        O      0.595933333333     0.929266666667     0.684750000000     0          
O        O      0.333333333333     0.945233333333     0.692425000000     0          
O        O      0.333333333333     0.870966666667     0.625000000000     0          
O        O      0.596533333333     0.814433333333     0.625000000000     0          
O        O      0.617733333333     0.717700000000     0.500000000000     0          
O        O      0.596266666667     0.719366666667     0.581500000000     0          
O        O      0.333333333333     0.737400000000     0.565250000000     0          
O        O      0.611900000000     0.666666666667     0.557575000000     0          
O        O      0.537633333333     0.666666666667     0.625000000000     0          
O        O      0.551233333333     0.736800000000     0.625000000000     0          
O        O      0.456433333333     0.737066666667     0.668500000000     0          
O        O      0.404066666667     0.666666666667     0.684750000000     0          
O        O      0.388100000000     0.721433333333     0.692425000000     0          
O        O      0.613966666667     0.876900000000     0.581500000000     0          
O        O      0.595933333333     0.929266666667     0.565250000000     0          
O        O      0.333333333333     0.945233333333     0.557575000000     0          
O        O      0.596266666667     0.719366666667     0.668500000000     0          
O        O      0.333333333333     0.737400000000     0.684750000000     0          
O        O      0.611900000000     0.666666666667     0.692425000000     0          
O        O      0.382266666667     0.766633333333     0.500000000000     0          
O        O      0.403733333333     0.789766666667     0.581500000000     0          
O        O      0.448766666667     0.852233333333     0.625000000000     0          
O        O      0.384366666667     0.951066666667     0.500000000000     0          
O        O      0.386033333333     0.929600000000     0.668500000000     0          
O        O      0.403466666667     0.884566666667     0.625000000000     0          
O        O      0.566700000000     0.948966666667     0.500000000000     0          
O        O      0.543566666667     0.947300000000     0.581500000000     0          
O        O      0.481100000000     0.929866666667     0.625000000000     0          
O        O      0.403733333333     0.789766666667     0.668500000000     0          
O        O      0.386033333333     0.929600000000     0.581500000000     0          
O        O      0.543566666667     0.947300000000     0.668500000000     0          
O        O      0.433300000000     0.715600000000     0.750000000000     0          
O        O      0.456433333333     0.737066666667     0.831500000000     0          
O        O      0.404066666667     0.666666666667     0.815250000000     0          
O        O      0.388100000000     0.721433333333     0.807575000000     0          
O        O      0.462366666667     0.795700000000     0.875000000000     0          
O        O      0.518900000000     0.782100000000     0.875000000000     0          
O        O      0.615633333333     0.900033333333     0.750000000000     0          
O        O      0.613966666667     0.876900000000     0.918500000000     0          
O        O      0.595933333333     0.929266666667     0.934750000000     0          
O        O      0.333333333333     0.945233333333     0.942425000000     0          
O        O      0.333333333333     0.870966666667     0.875000000000     0          
O        O      0.596533333333     0.814433333333     0.875000000000     0          
O        O      0.617733333333     0.717700000000     0.750000000000     0          
O        O      0.596266666667     0.719366666667     0.831500000000     0          
O        O      0.333333333333     0.737400000000     0.815250000000     0          
O        O      0.611900000000     0.666666666667     0.807575000000     0          
O        O      0.537633333333     0.666666666667     0.875000000000     0          
O        O      0.551233333333     0.736800000000     0.875000000000     0          
O        O      0.456433333333     0.737066666667     0.918500000000     0          
O        O      0.404066666667     0.666666666667     0.934750000000     0          
O        O      0.388100000000     0.721433333333     0.942425000000     0          
O        O      0.613966666667     0.876900000000     0.831500000000     0          
O        O      0.595933333333     0.929266666667     0.815250000000     0          
O        O      0.333333333333     0.945233333333     0.807575000000     0          
O        O      0.596266666667     0.719366666667     0.918500000000     0          
O        O      0.333333333333     0.737400000000     0.934750000000     0          
O        O      0.611900000000     0.666666666667     0.942425000000     0          
O        O      0.382266666667     0.766633333333     0.750000000000     0          
O        O      0.403733333333     0.789766666667     0.831500000000     0          
O        O      0.448766666667     0.852233333333     0.875000000000     0          
O        O      0.384366666667     0.951066666667     0.750000000000     0          
O        O      0.386033333333     0.929600000000     0.918500000000     0          
O        O      0.403466666667     0.884566666667     0.875000000000     0          
O        O      0.566700000000     0.948966666667     0.750000000000     0          
O        O      0.543566666667     0.947300000000     0.831500000000     0          
O        O      0.481100000000     0.929866666667     0.875000000000     0          
O        O      0.403733333333     0.789766666667     0.918500000000     0          
O        O      0.386033333333     0.929600000000     0.831500000000     0          
O        O      0.543566666667     0.947300000000     0.918500000000     0          
O        O      0.766633333333     0.048933333333     0.000000000000     0          
O        O      0.789766666667     0.070400000000     0.081500000000     0          
O        O      0.737400000000     0.000000000000     0.065250000000     0          
O        O      0.721433333333     0.054766666667     0.057575000000     0          
O        O      0.795700000000     0.129033333333     0.125000000000     0          
O        O      0.852233333333     0.115433333333     0.125000000000     0          
O        O      0.948966666667     0.233366666667     0.000000000000     0          
O        O      0.947300000000     0.210233333333     0.168500000000     0          
O        O      0.929266666667     0.262600000000     0.184750000000     0          
O        O      0.666666666667     0.278566666667     0.192425000000     0          
O        O      0.666666666667     0.204300000000     0.125000000000     0          
O        O      0.929866666667     0.147766666667     0.125000000000     0          
O        O      0.951066666667     0.051033333333     0.000000000000     0          
O        O      0.929600000000     0.052700000000     0.081500000000     0          
O        O      0.666666666667     0.070733333333     0.065250000000     0          
O        O      0.945233333333     0.000000000000     0.057575000000     0          
O        O      0.870966666667     0.000000000000     0.125000000000     0          
O        O      0.884566666667     0.070133333333     0.125000000000     0          
O        O      0.789766666667     0.070400000000     0.168500000000     0          
O        O      0.737400000000     0.000000000000     0.184750000000     0          
O        O      0.721433333333     0.054766666667     0.192425000000     0          
O        O      0.947300000000     0.210233333333     0.081500000000     0          
O        O      0.929266666667     0.262600000000     0.065250000000     0          
O        O      0.666666666667     0.278566666667     0.057575000000     0          
O        O      0.929600000000     0.052700000000     0.168500000000     0          
O        O      0.666666666667     0.070733333333     0.184750000000     0          
O        O      0.945233333333     0.000000000000     0.192425000000     0          
O        O      0.715600000000     0.099966666667     0.000000000000     0          
O        O      0.737066666667     0.123100000000     0.081500000000     0          
O        O      0.782100000000     0.185566666667     0.125000000000     0          
O        O      0.717700000000     0.284400000000     0.000000000000     0          
O        O      0.719366666667     0.262933333333     0.168500000000     0          
O        O      0.736800000000     0.217900000000     0.125000000000     0          
O        O      0.900033333333     0.282300000000     0.000000000000     0          
O        O      0.876900000000     0.280633333333     0.081500000000     0          
O        O      0.814433333333     0.263200000000     0.125000000000     0          
O        O      0.737066666667     0.123100000000     0.168500000000     0          
O        O      0.719366666667     0.262933333333     0.081500000000     0          
O        O      0.876900000000     0.280633333333     0.168500000000     0          
O        O      0.766633333333     0.048933333333     0.250000000000     0          
O        O      0.789766666667     0.070400000000     0.331500000000     0          
O        O      0.737400000000     0.000000000000     0.315250000000     0          
O        O      0.721433333333     0.054766666667     0.307575000000     0          
O        O      0.795700000000     0.129033333333     0.375000000000     0          
O        O      0.852233333333     0.115433333333     0.375000000000     0          
O        O      0.948966666667     0.233366666667     0.250000000000     0          
O        O      0.947300000000     0.210233333333     0.418500000000     0          
O        O      0.929266666667     0.262600000000     0.434750000000     0          
O        O      0.666666666667     0.278566666667     0.442425000000     0          
O        O      0.666666666667     0.204300000000     0.375000000000     0          
O        O      0.929866666667     0.147766666667     0.375000000000     0          
O        O      0.951066666667     0.051033333333     0.250000000000     0          
O        O      0.929600000000     0.052700000000     0.331500000000     0          
O        O      0.666666666667     0.070733333333     0.315250000000     0          
O        O      0.945233333333     0.000000000000     0.307575000000     0          
O        O      0.870966666667     0.000000000000     0.375000000000     0          
O        O      0.884566666667     0.070133333333     0.375000000000     0          
O        O      0.789766666667     0.070400000000     0.418500000000     0          
O        O      0.737400000000     0.000000000000     0.434750000000     0          
O        O      0.721433333333     0.054766666667     0.442425000000     0          
O        O      0.947300000000     0.210233333333     0.331500000000     0          
O        O      0.929266666667     0.262600000000     0.315250000000     0          
O        O      0.666666666667     0.278566666667     0.307575000000     0          
O        O      0.929600000000     0.052700000000     0.418500000000     0          
O        O      0.666666666667     0.070733333333     0.434750000000     0          
O        O      0.945233333333     0.000000000000     0.442425000000     0          
O        O      0.715600000000     0.099966666667     0.250000000000     0          
O        O      0.737066666667     0.123100000000     0.331500000000     0          
O        O      0.782100000000     0.185566666667     0.375000000000     0          
O        O      0.717700000000     0.284400000000     0.250000000000     0          
O        O      0.719366666667     0.262933333333     0.418500000000     0          
O        O      0.736800000000     0.217900000000     0.375000000000     0          
O        O      0.900033333333     0.282300000000     0.250000000000     0          
O        O      0.876900000000     0.280633333333     0.331500000000     0          
O        O      0.814433333333     0.263200000000     0.375000000000     0          
O        O      0.737066666667     0.123100000000     0.418500000000     0          
O        O      0.719366666667     0.262933333333     0.331500000000     0          
O        O      0.876900000000     0.280633333333     0.418500000000     0          
O        O      0.766633333333     0.048933333333     0.500000000000     0          
O        O      0.789766666667     0.070400000000     0.581500000000     0          
O        O      0.737400000000     0.000000000000     0.565250000000     0          
O        O      0.721433333333     0.054766666667     0.557575000000     0          
O        O      0.795700000000     0.129033333333     0.625000000000     0          
O        O      0.852233333333     0.115433333333     0.625000000000     0          
O        O      0.948966666667     0.233366666667     0.500000000000     0          
O        O      0.947300000000     0.210233333333     0.668500000000     0          
O        O      0.929266666667     0.262600000000     0.684750000000     0          
O        O      0.666666666667     0.278566666667     0.692425000000     0          
O        O      0.666666666667     0.204300000000     0.625000000000     0          
O        O      0.929866666667     0.147766666667     0.625000000000     0          
O        O      0.951066666667     0.051033333333     0.500000000000     0          
O        O      0.929600000000     0.052700000000     0.581500000000     0          
O        O      0.666666666667     0.070733333333     0.565250000000     0          
O        O      0.945233333333     0.000000000000     0.557575000000     0          
O        O      0.870966666667     0.000000000000     0.625000000000     0          
O        O      0.884566666667     0.070133333333     0.625000000000     0          
O        O      0.789766666667     0.070400000000     0.668500000000     0          
O        O      0.737400000000     0.000000000000     0.684750000000     0          
O        O      0.721433333333     0.054766666667     0.692425000000     0          
O        O      0.947300000000     0.210233333333     0.581500000000     0          
O        O      0.929266666667     0.262600000000     0.565250000000     0          
O        O      0.666666666667     0.278566666667     0.557575000000     0          
O        O      0.929600000000     0.052700000000     0.668500000000     0          
O        O      0.666666666667     0.070733333333     0.684750000000     0          
O        O      0.945233333333     0.000000000000     0.692425000000     0          
O        O      0.715600000000     0.099966666667     0.500000000000     0          
O        O      0.737066666667     0.123100000000     0.581500000000     0          
O        O      0.782100000000     0.185566666667     0.625000000000     0          
O        O      0.717700000000     0.284400000000     0.500000000000     0          
O        O      0.719366666667     0.262933333333     0.668500000000     0          
O        O      0.736800000000     0.217900000000     0.625000000000     0          
O        O      0.900033333333     0.282300000000     0.500000000000     0          
O        O      0.876900000000     0.280633333333     0.581500000000     0          
O        O      0.814433333333     0.263200000000     0.625000000000     0          
O        O      0.737066666667     0.123100000000     0.668500000000     0          
O        O      0.719366666667     0.262933333333     0.581500000000     0          
O        O      0.876900000000     0.280633333333     0.668500000000     0          
O        O      0.766633333333     0.048933333333     0.750000000000     0          
O        O      0.789766666667     0.070400000000     0.831500000000     0          
O        O      0.737400000000     0.000000000000     0.815250000000     0          
O        O      0.721433333333     0.054766666667     0.807575000000     0          
O        O      0.795700000000     0.129033333333     0.875000000000     0          
O        O      0.852233333333     0.115433333333     0.875000000000     0          
O        O      0.948966666667     0.233366666667     0.750000000000     0          
O        O      0.947300000000     0.210233333333     0.918500000000     0          
O        O      0.929266666667     0.262600000000     0.934750000000     0          
O        O      0.666666666667     0.278566666667     0.942425000000     0          
O        O      0.666666666667     0.204300000000     0.875000000000     0          
O        O      0.929866666667     0.147766666667     0.875000000000     0          
O        O      0.951066666667     0.051033333333     0.750000000000     0          
O        O      0.929600000000     0.052700000000     0.831500000000     0          
O        O      0.666666666667     0.070733333333     0.815250000000     0          
O        O      0.945233333333     0.000000000000     0.807575000000     0          
O        O      0.870966666667     0.000000000000     0.875000000000     0          
O        O      0.884566666667     0.070133333333     0.875000000000     0          
O        O      0.789766666667     0.070400000000     0.918500000000     0          
O        O      0.737400000000     0.000000000000     0.934750000000     0          
O        O      0.721433333333     0.054766666667     0.942425000000     0          
O        O      0.947300000000     0.210233333333     0.831500000000     0          
O        O      0.929266666667     0.262600000000     0.815250000000     0          
O        O      0.666666666667     0.278566666667     0.807575000000     0          
O        O      0.929600000000     0.052700000000     0.918500000000     0          
O        O      0.666666666667     0.070733333333     0.934750000000     0          
O        O      0.945233333333     0.000000000000     0.942425000000     0          
O        O      0.715600000000     0.099966666667     0.750000000000     0          
O        O      0.737066666667     0.123100000000     0.831500000000     0          
O        O      0.782100000000     0.185566666667     0.875000000000     0          
O        O      0.717700000000     0.284400000000     0.750000000000     0          
O        O      0.719366666667     0.262933333333     0.918500000000     0          
O        O      0.736800000000     0.217900000000     0.875000000000     0          
O        O      0.900033333333     0.282300000000     0.750000000000     0          
O        O      0.876900000000     0.280633333333     0.831500000000     0          
O        O      0.814433333333     0.263200000000     0.875000000000     0          
O        O      0.737066666667     0.123100000000     0.918500000000     0          
O        O      0.719366666667     0.262933333333     0.831500000000     0          
O        O      0.876900000000     0.280633333333     0.918500000000     0          
O        O      0.766633333333     0.382266666667     0.000000000000     0          
O        O      0.789766666667     0.403733333333     0.081500000000     0          
O        O      0.737400000000     0.333333333333     0.065250000000     0          
O        O      0.721433333333     0.388100000000     0.057575000000     0          
O        O      0.795700000000     0.462366666667     0.125000000000     0          
O        O      0.852233333333     0.448766666667     0.125000000000     0          
O        O      0.948966666667     0.566700000000     0.000000000000     0          
O        O      0.947300000000     0.543566666667     0.168500000000     0          
O        O      0.929266666667     0.595933333333     0.184750000000     0          
O        O      0.666666666667     0.611900000000     0.192425000000     0          
O        O      0.666666666667     0.537633333333     0.125000000000     0          
O        O      0.929866666667     0.481100000000     0.125000000000     0          
O        O      0.951066666667     0.384366666667     0.000000000000     0          
O        O      0.929600000000     0.386033333333     0.081500000000     0          
O        O      0.666666666667     0.404066666667     0.065250000000     0          
O        O      0.945233333333     0.333333333333     0.057575000000     0          
O        O      0.870966666667     0.333333333333     0.125000000000     0          
O        O      0.884566666667     0.403466666667     0.125000000000     0          
O        O      0.789766666667     0.403733333333     0.168500000000     0          
O        O      0.737400000000     0.333333333333     0.184750000000     0          
O        O      0.721433333333     0.388100000000     0.192425000000     0          
O        O      0.947300000000     0.543566666667     0.081500000000     0          
O        O      0.929266666667     0.595933333333     0.065250000000     0          
O        O      0.666666666667     0.611900000000     0.057575000000     0          
O        O      0.929600000000     0.386033333333     0.168500000000     0          
O        O      0.666666666667     0.404066666667     0.184750000000     0          
O        O      0.945233333333     0.333333333333     0.192425000000     0          
O        O      0.715600000000     0.433300000000     0.000000000000     0          
O        O      0.737066666667     0.456433333333     0.081500000000     0          
O        O      0.782100000000     0.518900000000     0.125000000000     0          
O        O      0.717700000000     0.617733333333     0.000000000000     0          
O        O      0.719366666667     0.596266666667     0.168500000000     0          
O        O      0.736800000000     0.551233333333     0.125000000000     0          
O        O      0.900033333333     0.615633333333     0.000000000000     0          
O        O      0.876900000000     0.613966666667     0.081500000000     0          
O        O      0.814433333333     0.596533333333     0.125000000000     0          
O        O      0.737066666667     0.456433333333     0.168500000000     0          
O        O      0.719366666667     0.596266666667     0.081500000000     0          
O        O      0.876900000000     0.613966666667     0.168500000000     0          
O        O      0.766633333333     0.382266666667     0.250000000000     0          
O        O      0.789766666667     0.403733333333     0.331500000000     0          
O        O      0.737400000000     0.333333333333     0.315250000000     0          
O        O      0.721433333333     0.388100000000     0.307575000000     0          
O        O      0.795700000000     0.462366666667     0.375000000000     0          
O        O      0.852233333333     0.448766666667     0.375000000000     0          
O        O      0.948966666667     0.566700000000     0.250000000000     0          
O        O      0.947300000000     0.543566666667     0.418500000000     0          
O        O      0.929266666667     0.595933333333     0.434750000000     0          
O        O      0.666666666667     0.611900000000     0.442425000000     0          
O        O      0.666666666667     0.537633333333     0.375000000000     0          
O        O      0.929866666667     0.481100000000     0.375000000000     0          
O        O      0.951066666667     0.384366666667     0.250000000000     0          
O        O      0.929600000000     0.386033333333     0.331500000000     0          
O        O      0.666666666667     0.404066666667     0.315250000000     0          
O        O      0.945233333333     0.333333333333     0.307575000000     0          
O        O      0.870966666667     0.333333333333     0.375000000000     0          
O        O      0.884566666667     0.403466666667     0.375000000000     0          
O        O      0.789766666667     0.403733333333     0.418500000000     0          
O        O      0.737400000000     0.333333333333     0.434750000000     0          
O        O      0.721433333333     0.388100000000     0.442425000000     0          
O        O      0.947300000000     0.543566666667     0.331500000000     0          
O        O      0.929266666667     0.595933333333     0.315250000000     0          
O        O      0.666666666667     0.611900000000     0.307575000000     0          
O        O      0.929600000000     0.386033333333     0.418500000000     0          
O        O      0.666666666667     0.404066666667     0.434750000000     0          
O        O      0.945233333333     0.333333333333     0.442425000000     0          
O        O      0.715600000000     0.433300000000     0.250000000000     0          
O        O      0.737066666667     0.456433333333     0.331500000000     0          
O        O      0.782100000000     0.518900000000     0.375000000000     0          
O        O      0.717700000000     0.617733333333     0.250000000000     0          
O        O      0.719366666667     0.596266666667     0.418500000000     0          
O        O      0.736800000000     0.551233333333     0.375000000000     0          
O        O      0.900033333333     0.615633333333     0.250000000000     0          
O        O      0.876900000000     0.613966666667     0.331500000000     0          
O        O      0.814433333333     0.596533333333     0.375000000000     0          
O        O      0.737066666667     0.456433333333     0.418500000000     0          
O        O      0.719366666667     0.596266666667     0.331500000000     0          
O        O      0.876900000000     0.613966666667     0.418500000000     0          
O        O      0.766633333333     0.382266666667     0.500000000000     0          
O        O      0.789766666667     0.403733333333     0.581500000000     0          
O        O      0.737400000000     0.333333333333     0.565250000000     0          
O        O      0.721433333333     0.388100000000     0.557575000000     0          
O        O      0.795700000000     0.462366666667     0.625000000000     0          
O        O      0.852233333333     0.448766666667     0.625000000000     0          
O        O      0.948966666667     0.566700000000     0.500000000000     0          
O        O      0.947300000000     0.543566666667     0.668500000000     0          
O        O      0.929266666667     0.595933333333     0.684750000000     0          
O        O      0.666666666667     0.611900000000     0.692425000000     0          
O        O      0.666666666667     0.537633333333     0.625000000000     0          
O        O      0.929866666667     0.481100000000     0.625000000000     0          
O        O      0.951066666667     0.384366666667     0.500000000000     0          
O        O      0.929600000000     0.386033333333     0.581500000000     0          
O        O      0.666666666667     0.404066666667     0.565250000000     0          
O        O      0.945233333333     0.333333333333     0.557575000000     0          
O        O      0.870966666667     0.333333333333     0.625000000000     0          
O        O      0.884566666667     0.403466666667     0.625000000000     0          
O        O      0.789766666667     0.403733333333     0.668500000000     0          
O        O      0.737400000000     0.333333333333     0.684750000000     0          
O        O      0.721433333333     0.388100000000     0.692425000000     0          
O        O      0.947300000000     0.543566666667     0.581500000000     0          
O        O      0.929266666667     0.595933333333     0.565250000000     0          
O        O      0.666666666667     0.611900000000     0.557575000000     0          
O        O      0.929600000000     0.386033333333     0.668500000000     0          
O        O      0.666666666667     0.404066666667     0.684750000000     0          
O        O      0.945233333333     0.333333333333     0.692425000000     0          
O        O      0.715600000000     0.433300000000     0.500000000000     0          
O        O      0.737066666667     0.456433333333     0.581500000000     0          
O        O      0.782100000000     0.518900000000     0.625000000000     0          
O        O      0.717700000000     0.617733333333     0.500000000000     0          
O        O      0.719366666667     0.596266666667     0.668500000000     0          
O        O      0.736800000000     0.551233333333     0.625000000000     0          
O        O      0.900033333333     0.615633333333     0.500000000000     0          
O        O      0.876900000000     0.613966666667     0.581500000000     0          
O        O      0.814433333333     0.596533333333     0.625000000000     0          
O        O      0.737066666667     0.456433333333     0.668500000000     0          
O        O      0.719366666667     0.596266666667     0.581500000000     0          
O        O      0.876900000000     0.613966666667     0.668500000000     0          
O        O      0.766633333333     0.382266666667     0.750000000000     0          
O        O      0.789766666667     0.403733333333     0.831500000000     0          
O        O      0.737400000000     0.333333333333     0.815250000000     0          
O        O      0.721433333333     0.388100000000     0.807575000000     0          
O        O      0.795700000000     0.462366666667     0.875000000000     0          
O        O      0.852233333333     0.448766666667     0.875000000000     0          
O        O      0.948966666667     0.566700000000     0.750000000000     0          
O        O      0.947300000000     0.543566666667     0.918500000000     0          
O        O      0.929266666667     0.595933333333     0.934750000000     0          
O        O      0.666666666667     0.611900000000     0.942425000000     0          
O        O      0.666666666667     0.537633333333     0.875000000000     0          
O        O      0.929866666667     0.481100000000     0.875000000000     0          
O        O      0.951066666667     0.384366666667     0.750000000000     0          
O        O      0.929600000000     0.386033333333     0.831500000000     0          
O        O      0.666666666667     0.404066666667     0.815250000000     0          
O        O      0.945233333333     0.333333333333     0.807575000000     0          
O        O      0.870966666667     0.333333333333     0.875000000000     0          
O        O      0.884566666667     0.403466666667     0.875000000000     0          
O        O      0.789766666667     0.403733333333     0.918500000000     0          
O        O      0.737400000000     0.333333333333     0.934750000000     0          
O        O      0.721433333333     0.388100000000     0.942425000000     0          
O        O      0.947300000000     0.543566666667     0.831500000000     0          
O        O      0.929266666667     0.595933333333     0.815250000000     0          
O        O      0.666666666667     0.611900000000     0.807575000000     0          
O        O      0.929600000000     0.386033333333     0.918500000000     0          
O        O      0.666666666667     0.404066666667     0.934750000000     0          
O        O      0.945233333333     0.333333333333     0.942425000000     0          
O        O      0.715600000000     0.433300000000     0.750000000000     0          
O        O      0.737066666667     0.456433333333     0.831500000000     0          
O        O      0.782100000000     0.518900000000     0.875000000000     0          
O        O      0.717700000000     0.617733333333     0.750000000000     0          
O        O      0.719366666667     0.596266666667     0.918500000000     0          
O        O      0.736800000000     0.551233333333     0.875000000000     0          
O        O      0.900033333333     0.615633333333     0.750000000000     0          
O        O      0.876900000000     0.613966666667     0.831500000000     0          
O        O      0.814433333333     0.596533333333     0.875000000000     0          
O        O      0.737066666667     0.456433333333     0.918500000000     0          
O        O      0.719366666667     0.596266666667     0.831500000000     0          
O        O      0.876900000000     0.613966666667     0.918500000000     0          
O        O      0.766633333333     0.715600000000     0.000000000000     0          
O        O      0.789766666667     0.737066666667     0.081500000000     0          
O        O      0.737400000000     0.666666666667     0.065250000000     0          
O        O      0.721433333333     0.721433333333     0.057575000000     0          
O        O      0.795700000000     0.795700000000     0.125000000000     0          
O        O      0.852233333333     0.782100000000     0.125000000000     0          
O        O      0.948966666667     0.900033333333     0.000000000000     0          
O        O      0.947300000000     0.876900000000     0.168500000000     0          
O        O      0.929266666667     0.929266666667     0.184750000000     0          
O        O      0.666666666667     0.945233333333     0.192425000000     0          
O        O      0.666666666667     0.870966666667     0.125000000000     0          
O        O      0.929866666667     0.814433333333     0.125000000000     0          
O        O      0.951066666667     0.717700000000     0.000000000000     0          
O        O      0.929600000000     0.719366666667     0.081500000000     0          
O        O      0.666666666667     0.737400000000     0.065250000000     0          
O        O      0.945233333333     0.666666666667     0.057575000000     0          
O        O      0.870966666667     0.666666666667     0.125000000000     0          
O        O      0.884566666667     0.736800000000     0.125000000000     0          
O        O      0.789766666667     0.737066666667     0.168500000000     0          
O        O      0.737400000000     0.666666666667     0.184750000000     0          
O        O      0.721433333333     0.721433333333     0.192425000000     0          
O        O      0.947300000000     0.876900000000     0.081500000000     0          
O        O      0.929266666667     0.929266666667     0.065250000000     0          
O        O      0.666666666667     0.945233333333     0.057575000000     0          
O        O      0.929600000000     0.719366666667     0.168500000000     0          
O        O      0.666666666667     0.737400000000     0.184750000000     0          
O        O      0.945233333333     0.666666666667     0.192425000000     0          
O        O      0.715600000000     0.766633333333     0.000000000000     0          
O        O      0.737066666667     0.789766666667     0.081500000000     0          
O        O      0.782100000000     0.852233333333     0.125000000000     0          
O        O      0.717700000000     0.951066666667     0.000000000000     0          
O        O      0.719366666667     0.929600000000     0.168500000000     0          
O        O      0.736800000000     0.884566666667     0.125000000000     0          
O        O      0.900033333333     0.948966666667     0.000000000000     0          
O        O      0.876900000000     0.947300000000     0.081500000000     0          
O        O      0.814433333333     0.929866666667     0.125000000000     0          
O        O      0.737066666667     0.789766666667     0.168500000000     0          
O        O      0.719366666667     0.929600000000     0.081500000000     0          
O        O      0.876900000000     0.947300000000     0.168500000000     0          
O        O      0.766633333333     0.715600000000     0.250000000000     0          
O        O      0.789766666667     0.737066666667     0.331500000000     0          
O        O      0.737400000000     0.666666666667     0.315250000000     0          
O        O      0.721433333333     0.721433333333     0.307575000000     0          
O        O      0.795700000000     0.795700000000     0.375000000000     0          
O        O      0.852233333333     0.782100000000     0.375000000000     0          
O        O      0.948966666667     0.900033333333     0.250000000000     0          
O        O      0.947300000000     0.876900000000     0.418500000000     0          
O        O      0.929266666667     0.929266666667     0.434750000000     0          
O        O      0.666666666667     0.945233333333     0.442425000000     0          
O        O      0.666666666667     0.870966666667     0.375000000000     0          
O        O      0.929866666667     0.814433333333     0.375000000000     0          
O        O      0.951066666667     0.717700000000     0.250000000000     0          
O        O      0.929600000000     0.719366666667     0.331500000000     0          
O        O      0.666666666667     0.737400000000     0.315250000000     0          
O        O      0.945233333333     0.666666666667     0.307575000000     0          
O        O      0.870966666667     0.666666666667     0.375000000000     0          
O        O      0.884566666667     0.736800000000     0.375000000000     0          
O        O      0.789766666667     0.737066666667     0.418500000000     0          
O        O      0.737400000000     0.666666666667     0.434750000000     0          
O        O      0.721433333333     0.721433333333     0.442425000000     0          
O        O      0.947300000000     0.876900000000     0.331500000000     0          
O        O      0.929266666667     0.929266666667     0.315250000000     0          
O        O      0.666666666667     0.945233333333     0.307575000000     0          
O        O      0.929600000000     0.719366666667     0.418500000000     0          
O        O      0.666666666667     0.737400000000     0.434750000000     0          
O        O      0.945233333333     0.666666666667     0.442425000000     0          
O        O      0.715600000000     0.766633333333     0.250000000000     0          
O        O      0.737066666667     0.789766666667     0.331500000000     0          
O        O      0.782100000000     0.852233333333     0.375000000000     0          
O        O      0.717700000000     0.951066666667     0.250000000000     0          
O        O      0.719366666667     0.929600000000     0.418500000000     0          
O        O      0.736800000000     0.884566666667     0.375000000000     0          
O        O      0.900033333333     0.948966666667     0.250000000000     0          
O        O      0.876900000000     0.947300000000     0.331500000000     0          
O        O      0.814433333333     0.929866666667     0.375000000000     0          
O        O      0.737066666667     0.789766666667     0.418500000000     0          
O        O      0.719366666667     0.929600000000     0.331500000000     0          
O        O      0.876900000000     0.947300000000     0.418500000000     0          
O        O      0.766633333333     0.715600000000     0.500000000000     0          
O        O      0.789766666667     0.737066666667     0.581500000000     0          
O        O      0.737400000000     0.666666666667     0.565250000000     0          
O        O      0.721433333333     0.721433333333     0.557575000000     0          
O        O      0.795700000000     0.795700000000     0.625000000000     0          
O        O      0.852233333333     0.782100000000     0.625000000000     0          
O        O      0.948966666667     0.900033333333     0.500000000000     0          
O        O      0.947300000000     0.876900000000     0.668500000000     0          
O        O      0.929266666667     0.929266666667     0.684750000000     0          
O        O      0.666666666667     0.945233333333     0.692425000000     0          
O        O      0.666666666667     0.870966666667     0.625000000000     0          
O        O      0.929866666667     0.814433333333     0.625000000000     0          
O        O      0.951066666667     0.717700000000     0.500000000000     0          
O        O      0.929600000000     0.719366666667     0.581500000000     0          
O        O      0.666666666667     0.737400000000     0.565250000000     0          
O        O      0.945233333333     0.666666666667     0.557575000000     0          
O        O      0.870966666667     0.666666666667     0.625000000000     0          
O        O      0.884566666667     0.736800000000     0.625000000000     0          
O        O      0.789766666667     0.737066666667     0.668500000000     0          
O        O      0.737400000000     0.666666666667     0.684750000000     0          
O        O      0.721433333333     0.721433333333     0.692425000000     0          
O        O      0.947300000000     0.876900000000     0.581500000000     0          
O        O      0.929266666667     0.929266666667     0.565250000000     0          
O        O      0.666666666667     0.945233333333     0.557575000000     0          
O        O      0.929600000000     0.719366666667     0.668500000000     0          
O        O      0.666666666667     0.737400000000     0.684750000000     0          
O        O      0.945233333333     0.666666666667     0.692425000000     0          
O        O      0.715600000000     0.766633333333     0.500000000000     0          
O        O      0.737066666667     0.789766666667     0.581500000000     0          
O        O      0.782100000000     0.852233333333     0.625000000000     0          
O        O      0.717700000000     0.951066666667     0.500000000000     0          
O        O      0.719366666667     0.929600000000     0.668500000000     0          
O        O      0.736800000000     0.884566666667     0.625000000000     0          
O        O      0.900033333333     0.948966666667     0.500000000000     0          
O        O      0.876900000000     0.947300000000     0.581500000000     0          
O        O      0.814433333333     0.929866666667     0.625000000000     0          
O        O      0.737066666667     0.789766666667     0.668500000000     0          
O        O      0.719366666667     0.929600000000     0.581500000000     0          
O        O      0.876900000000     0.947300000000     0.668500000000     0          
O        O      0.766633333333     0.715600000000     0.750000000000     0          
O        O      0.789766666667     0.737066666667     0.831500000000     0          
O        O      0.737400000000     0.666666666667     0.815250000000     0          
O        O      0.721433333333     0.721433333333     0.807575000000     0          
O        O      0.795700000000     0.795700000000     0.875000000000     0          
O        O      0.852233333333     0.782100000000     0.875000000000     0          
O        O      0.948966666667     0.900033333333     0.750000000000     0          
O        O      0.947300000000     0.876900000000     0.918500000000     0          
O        O      0.929266666667     0.929266666667     0.934750000000     0          
O        O      0.666666666667     0.945233333333     0.942425000000     0          
O        O      0.666666666667     0.870966666667     0.875000000000     0          
O        O      0.929866666667     0.814433333333     0.875000000000     0          
O        O      0.951066666667     0.717700000000     0.750000000000     0          
O        O      0.929600000000     0.719366666667     0.831500000000     0          
O        O      0.666666666667     0.737400000000     0.815250000000     0          
O        O      0.945233333333     0.666666666667     0.807575000000     0          
O        O      0.870966666667     0.666666666667     0.875000000000     0          
O        O      0.884566666667     0.736800000000     0.875000000000     0          
O        O      0.789766666667     0.737066666667     0.918500000000     0          
O        O      0.737400000000     0.666666666667     0.934750000000     0          
O        O      0.721433333333     0.721433333333     0.942425000000     0          
O        O      0.947300000000     0.876900000000     0.831500000000     0          
O        O      0.929266666667     0.929266666667     0.815250000000     0          
O        O      0.666666666667     0.945233333333     0.807575000000     0          
O        O      0.929600000000     0.719366666667     0.918500000000     0          
O        O      0.666666666667     0.737400000000     0.934750000000     0          
O        O      0.945233333333     0.666666666667     0.942425000000     0          
O        O      0.715600000000     0.766633333333     0.750000000000     0          
O        O      0.737066666667     0.789766666667     0.831500000000     0          
O        O      0.782100000000     0.852233333333     0.875000000000     0          
O        O      0.717700000000     0.951066666667     0.750000000000     0          
O        O      0.719366666667     0.929600000000     0.918500000000     0          
O        O      0.736800000000     0.884566666667     0.875000000000     0          
O        O      0.900033333333     0.948966666667     0.750000000000     0          
O        O      0.876900000000     0.947300000000     0.831500000000     0          
O        O      0.814433333333     0.929866666667     0.875000000000     0          
O        O      0.737066666667     0.789766666667     0.918500000000     0          
O        O      0.719366666667     0.929600000000     0.831500000000     0          
O        O      0.876900000000     0.947300000000     0.918500000000     0          


