data_zeolite

_audit_creation_method RASPA-1.0
_audit_creation_date 2021-6-7
_audit_author_name ''

_cell_length_a    9.764
_cell_length_b    25.614
_cell_length_c    8.327
_cell_angle_alpha 90
_cell_angle_beta  90
_cell_angle_gamma 90
_cell_volume      24990.5

_symmetry_cell_setting          orthorhombic
_symmetry_space_group_name_Hall 'P 1'
_symmetry_space_group_name_H-M  'P 1'
_symmetry_Int_Tables_number     1

_symmetry_equiv_pos_as_xyz 'x,y,z'

loop_
_atom_site_label
_atom_site_type_symbol
_atom_site_fract_x
_atom_site_fract_y
_atom_site_fract_z
_atom_site_charge
T        Si     0.068000000000     0.356700000000     0.015350000000     0          
T        Si     0.166666666667     0.059900000000     0.014275000000     0          
T        Si     0.166666666667     0.225000000000     0.017025000000     0          
T        Si     0.000000000000     0.163600000000     0.016175000000     0          
T        Si     0.265333333333     0.643300000000     0.140350000000     0          
T        Si     0.166666666667     0.940100000000     0.139275000000     0          
T        Si     0.166666666667     0.775000000000     0.142025000000     0          
T        Si     0.000000000000     0.836400000000     0.141175000000     0          
T        Si     0.068000000000     0.643300000000     0.234650000000     0          
T        Si     0.166666666667     0.940100000000     0.235725000000     0          
T        Si     0.166666666667     0.775000000000     0.232975000000     0          
T        Si     0.000000000000     0.836400000000     0.233825000000     0          
T        Si     0.265333333333     0.356700000000     0.109650000000     0          
T        Si     0.166666666667     0.059900000000     0.110725000000     0          
T        Si     0.166666666667     0.225000000000     0.107975000000     0          
T        Si     0.000000000000     0.163600000000     0.108825000000     0          
T        Si     0.265333333333     0.643300000000     0.234650000000     0          
T        Si     0.068000000000     0.356700000000     0.109650000000     0          
T        Si     0.265333333333     0.356700000000     0.015350000000     0          
T        Si     0.068000000000     0.643300000000     0.140350000000     0          
T        Si     0.234666666667     0.856700000000     0.015350000000     0          
T        Si     0.000000000000     0.559900000000     0.014275000000     0          
T        Si     0.000000000000     0.725000000000     0.017025000000     0          
T        Si     0.166666666667     0.663600000000     0.016175000000     0          
T        Si     0.098666666667     0.143300000000     0.140350000000     0          
T        Si     0.000000000000     0.440100000000     0.139275000000     0          
T        Si     0.000000000000     0.275000000000     0.142025000000     0          
T        Si     0.166666666667     0.336400000000     0.141175000000     0          
T        Si     0.234666666667     0.143300000000     0.234650000000     0          
T        Si     0.000000000000     0.440100000000     0.235725000000     0          
T        Si     0.000000000000     0.275000000000     0.232975000000     0          
T        Si     0.166666666667     0.336400000000     0.233825000000     0          
T        Si     0.098666666667     0.856700000000     0.109650000000     0          
T        Si     0.000000000000     0.559900000000     0.110725000000     0          
T        Si     0.000000000000     0.725000000000     0.107975000000     0          
T        Si     0.166666666667     0.663600000000     0.108825000000     0          
T        Si     0.098666666667     0.143300000000     0.234650000000     0          
T        Si     0.234666666667     0.856700000000     0.109650000000     0          
T        Si     0.098666666667     0.856700000000     0.015350000000     0          
T        Si     0.234666666667     0.143300000000     0.140350000000     0          
T        Si     0.068000000000     0.356700000000     0.265350000000     0          
T        Si     0.166666666667     0.059900000000     0.264275000000     0          
T        Si     0.166666666667     0.225000000000     0.267025000000     0          
T        Si     0.000000000000     0.163600000000     0.266175000000     0          
T        Si     0.265333333333     0.643300000000     0.390350000000     0          
T        Si     0.166666666667     0.940100000000     0.389275000000     0          
T        Si     0.166666666667     0.775000000000     0.392025000000     0          
T        Si     0.000000000000     0.836400000000     0.391175000000     0          
T        Si     0.068000000000     0.643300000000     0.484650000000     0          
T        Si     0.166666666667     0.940100000000     0.485725000000     0          
T        Si     0.166666666667     0.775000000000     0.482975000000     0          
T        Si     0.000000000000     0.836400000000     0.483825000000     0          
T        Si     0.265333333333     0.356700000000     0.359650000000     0          
T        Si     0.166666666667     0.059900000000     0.360725000000     0          
T        Si     0.166666666667     0.225000000000     0.357975000000     0          
T        Si     0.000000000000     0.163600000000     0.358825000000     0          
T        Si     0.265333333333     0.643300000000     0.484650000000     0          
T        Si     0.068000000000     0.356700000000     0.359650000000     0          
T        Si     0.265333333333     0.356700000000     0.265350000000     0          
T        Si     0.068000000000     0.643300000000     0.390350000000     0          
T        Si     0.234666666667     0.856700000000     0.265350000000     0          
T        Si     0.000000000000     0.559900000000     0.264275000000     0          
T        Si     0.000000000000     0.725000000000     0.267025000000     0          
T        Si     0.166666666667     0.663600000000     0.266175000000     0          
T        Si     0.098666666667     0.143300000000     0.390350000000     0          
T        Si     0.000000000000     0.440100000000     0.389275000000     0          
T        Si     0.000000000000     0.275000000000     0.392025000000     0          
T        Si     0.166666666667     0.336400000000     0.391175000000     0          
T        Si     0.234666666667     0.143300000000     0.484650000000     0          
T        Si     0.000000000000     0.440100000000     0.485725000000     0          
T        Si     0.000000000000     0.275000000000     0.482975000000     0          
T        Si     0.166666666667     0.336400000000     0.483825000000     0          
T        Si     0.098666666667     0.856700000000     0.359650000000     0          
T        Si     0.000000000000     0.559900000000     0.360725000000     0          
T        Si     0.000000000000     0.725000000000     0.357975000000     0          
T        Si     0.166666666667     0.663600000000     0.358825000000     0          
T        Si     0.098666666667     0.143300000000     0.484650000000     0          
T        Si     0.234666666667     0.856700000000     0.359650000000     0          
T        Si     0.098666666667     0.856700000000     0.265350000000     0          
T        Si     0.234666666667     0.143300000000     0.390350000000     0          
T        Si     0.068000000000     0.356700000000     0.515350000000     0          
T        Si     0.166666666667     0.059900000000     0.514275000000     0          
T        Si     0.166666666667     0.225000000000     0.517025000000     0          
T        Si     0.000000000000     0.163600000000     0.516175000000     0          
T        Si     0.265333333333     0.643300000000     0.640350000000     0          
T        Si     0.166666666667     0.940100000000     0.639275000000     0          
T        Si     0.166666666667     0.775000000000     0.642025000000     0          
T        Si     0.000000000000     0.836400000000     0.641175000000     0          
T        Si     0.068000000000     0.643300000000     0.734650000000     0          
T        Si     0.166666666667     0.940100000000     0.735725000000     0          
T        Si     0.166666666667     0.775000000000     0.732975000000     0          
T        Si     0.000000000000     0.836400000000     0.733825000000     0          
T        Si     0.265333333333     0.356700000000     0.609650000000     0          
T        Si     0.166666666667     0.059900000000     0.610725000000     0          
T        Si     0.166666666667     0.225000000000     0.607975000000     0          
T        Si     0.000000000000     0.163600000000     0.608825000000     0          
T        Si     0.265333333333     0.643300000000     0.734650000000     0          
T        Si     0.068000000000     0.356700000000     0.609650000000     0          
T        Si     0.265333333333     0.356700000000     0.515350000000     0          
T        Si     0.068000000000     0.643300000000     0.640350000000     0          
T        Si     0.234666666667     0.856700000000     0.515350000000     0          
T        Si     0.000000000000     0.559900000000     0.514275000000     0          
T        Si     0.000000000000     0.725000000000     0.517025000000     0          
T        Si     0.166666666667     0.663600000000     0.516175000000     0          
T        Si     0.098666666667     0.143300000000     0.640350000000     0          
T        Si     0.000000000000     0.440100000000     0.639275000000     0          
T        Si     0.000000000000     0.275000000000     0.642025000000     0          
T        Si     0.166666666667     0.336400000000     0.641175000000     0          
T        Si     0.234666666667     0.143300000000     0.734650000000     0          
T        Si     0.000000000000     0.440100000000     0.735725000000     0          
T        Si     0.000000000000     0.275000000000     0.732975000000     0          
T        Si     0.166666666667     0.336400000000     0.733825000000     0          
T        Si     0.098666666667     0.856700000000     0.609650000000     0          
T        Si     0.000000000000     0.559900000000     0.610725000000     0          
T        Si     0.000000000000     0.725000000000     0.607975000000     0          
T        Si     0.166666666667     0.663600000000     0.608825000000     0          
T        Si     0.098666666667     0.143300000000     0.734650000000     0          
T        Si     0.234666666667     0.856700000000     0.609650000000     0          
T        Si     0.098666666667     0.856700000000     0.515350000000     0          
T        Si     0.234666666667     0.143300000000     0.640350000000     0          
T        Si     0.068000000000     0.356700000000     0.765350000000     0          
T        Si     0.166666666667     0.059900000000     0.764275000000     0          
T        Si     0.166666666667     0.225000000000     0.767025000000     0          
T        Si     0.000000000000     0.163600000000     0.766175000000     0          
T        Si     0.265333333333     0.643300000000     0.890350000000     0          
T        Si     0.166666666667     0.940100000000     0.889275000000     0          
T        Si     0.166666666667     0.775000000000     0.892025000000     0          
T        Si     0.000000000000     0.836400000000     0.891175000000     0          
T        Si     0.068000000000     0.643300000000     0.984650000000     0          
T        Si     0.166666666667     0.940100000000     0.985725000000     0          
T        Si     0.166666666667     0.775000000000     0.982975000000     0          
T        Si     0.000000000000     0.836400000000     0.983825000000     0          
T        Si     0.265333333333     0.356700000000     0.859650000000     0          
T        Si     0.166666666667     0.059900000000     0.860725000000     0          
T        Si     0.166666666667     0.225000000000     0.857975000000     0          
T        Si     0.000000000000     0.163600000000     0.858825000000     0          
T        Si     0.265333333333     0.643300000000     0.984650000000     0          
T        Si     0.068000000000     0.356700000000     0.859650000000     0          
T        Si     0.265333333333     0.356700000000     0.765350000000     0          
T        Si     0.068000000000     0.643300000000     0.890350000000     0          
T        Si     0.234666666667     0.856700000000     0.765350000000     0          
T        Si     0.000000000000     0.559900000000     0.764275000000     0          
T        Si     0.000000000000     0.725000000000     0.767025000000     0          
T        Si     0.166666666667     0.663600000000     0.766175000000     0          
T        Si     0.098666666667     0.143300000000     0.890350000000     0          
T        Si     0.000000000000     0.440100000000     0.889275000000     0          
T        Si     0.000000000000     0.275000000000     0.892025000000     0          
T        Si     0.166666666667     0.336400000000     0.891175000000     0          
T        Si     0.234666666667     0.143300000000     0.984650000000     0          
T        Si     0.000000000000     0.440100000000     0.985725000000     0          
T        Si     0.000000000000     0.275000000000     0.982975000000     0          
T        Si     0.166666666667     0.336400000000     0.983825000000     0          
T        Si     0.098666666667     0.856700000000     0.859650000000     0          
T        Si     0.000000000000     0.559900000000     0.860725000000     0          
T        Si     0.000000000000     0.725000000000     0.857975000000     0          
T        Si     0.166666666667     0.663600000000     0.858825000000     0          
T        Si     0.098666666667     0.143300000000     0.984650000000     0          
T        Si     0.234666666667     0.856700000000     0.859650000000     0          
T        Si     0.098666666667     0.856700000000     0.765350000000     0          
T        Si     0.234666666667     0.143300000000     0.890350000000     0          
T        Si     0.401333333333     0.356700000000     0.015350000000     0          
T        Si     0.500000000000     0.059900000000     0.014275000000     0          
T        Si     0.500000000000     0.225000000000     0.017025000000     0          
T        Si     0.333333333333     0.163600000000     0.016175000000     0          
T        Si     0.598666666667     0.643300000000     0.140350000000     0          
T        Si     0.500000000000     0.940100000000     0.139275000000     0          
T        Si     0.500000000000     0.775000000000     0.142025000000     0          
T        Si     0.333333333333     0.836400000000     0.141175000000     0          
T        Si     0.401333333333     0.643300000000     0.234650000000     0          
T        Si     0.500000000000     0.940100000000     0.235725000000     0          
T        Si     0.500000000000     0.775000000000     0.232975000000     0          
T        Si     0.333333333333     0.836400000000     0.233825000000     0          
T        Si     0.598666666667     0.356700000000     0.109650000000     0          
T        Si     0.500000000000     0.059900000000     0.110725000000     0          
T        Si     0.500000000000     0.225000000000     0.107975000000     0          
T        Si     0.333333333333     0.163600000000     0.108825000000     0          
T        Si     0.598666666667     0.643300000000     0.234650000000     0          
T        Si     0.401333333333     0.356700000000     0.109650000000     0          
T        Si     0.598666666667     0.356700000000     0.015350000000     0          
T        Si     0.401333333333     0.643300000000     0.140350000000     0          
T        Si     0.568000000000     0.856700000000     0.015350000000     0          
T        Si     0.333333333333     0.559900000000     0.014275000000     0          
T        Si     0.333333333333     0.725000000000     0.017025000000     0          
T        Si     0.500000000000     0.663600000000     0.016175000000     0          
T        Si     0.432000000000     0.143300000000     0.140350000000     0          
T        Si     0.333333333333     0.440100000000     0.139275000000     0          
T        Si     0.333333333333     0.275000000000     0.142025000000     0          
T        Si     0.500000000000     0.336400000000     0.141175000000     0          
T        Si     0.568000000000     0.143300000000     0.234650000000     0          
T        Si     0.333333333333     0.440100000000     0.235725000000     0          
T        Si     0.333333333333     0.275000000000     0.232975000000     0          
T        Si     0.500000000000     0.336400000000     0.233825000000     0          
T        Si     0.432000000000     0.856700000000     0.109650000000     0          
T        Si     0.333333333333     0.559900000000     0.110725000000     0          
T        Si     0.333333333333     0.725000000000     0.107975000000     0          
T        Si     0.500000000000     0.663600000000     0.108825000000     0          
T        Si     0.432000000000     0.143300000000     0.234650000000     0          
T        Si     0.568000000000     0.856700000000     0.109650000000     0          
T        Si     0.432000000000     0.856700000000     0.015350000000     0          
T        Si     0.568000000000     0.143300000000     0.140350000000     0          
T        Si     0.401333333333     0.356700000000     0.265350000000     0          
T        Si     0.500000000000     0.059900000000     0.264275000000     0          
T        Si     0.500000000000     0.225000000000     0.267025000000     0          
T        Si     0.333333333333     0.163600000000     0.266175000000     0          
T        Si     0.598666666667     0.643300000000     0.390350000000     0          
T        Si     0.500000000000     0.940100000000     0.389275000000     0          
T        Si     0.500000000000     0.775000000000     0.392025000000     0          
T        Si     0.333333333333     0.836400000000     0.391175000000     0          
T        Si     0.401333333333     0.643300000000     0.484650000000     0          
T        Si     0.500000000000     0.940100000000     0.485725000000     0          
T        Si     0.500000000000     0.775000000000     0.482975000000     0          
T        Si     0.333333333333     0.836400000000     0.483825000000     0          
T        Si     0.598666666667     0.356700000000     0.359650000000     0          
T        Si     0.500000000000     0.059900000000     0.360725000000     0          
T        Si     0.500000000000     0.225000000000     0.357975000000     0          
T        Si     0.333333333333     0.163600000000     0.358825000000     0          
T        Si     0.598666666667     0.643300000000     0.484650000000     0          
T        Si     0.401333333333     0.356700000000     0.359650000000     0          
T        Si     0.598666666667     0.356700000000     0.265350000000     0          
T        Si     0.401333333333     0.643300000000     0.390350000000     0          
T        Si     0.568000000000     0.856700000000     0.265350000000     0          
T        Si     0.333333333333     0.559900000000     0.264275000000     0          
T        Si     0.333333333333     0.725000000000     0.267025000000     0          
T        Si     0.500000000000     0.663600000000     0.266175000000     0          
T        Si     0.432000000000     0.143300000000     0.390350000000     0          
T        Si     0.333333333333     0.440100000000     0.389275000000     0          
T        Si     0.333333333333     0.275000000000     0.392025000000     0          
T        Si     0.500000000000     0.336400000000     0.391175000000     0          
T        Si     0.568000000000     0.143300000000     0.484650000000     0          
T        Si     0.333333333333     0.440100000000     0.485725000000     0          
T        Si     0.333333333333     0.275000000000     0.482975000000     0          
T        Si     0.500000000000     0.336400000000     0.483825000000     0          
T        Si     0.432000000000     0.856700000000     0.359650000000     0          
T        Si     0.333333333333     0.559900000000     0.360725000000     0          
T        Si     0.333333333333     0.725000000000     0.357975000000     0          
T        Si     0.500000000000     0.663600000000     0.358825000000     0          
T        Si     0.432000000000     0.143300000000     0.484650000000     0          
T        Si     0.568000000000     0.856700000000     0.359650000000     0          
T        Si     0.432000000000     0.856700000000     0.265350000000     0          
T        Si     0.568000000000     0.143300000000     0.390350000000     0          
T        Si     0.401333333333     0.356700000000     0.515350000000     0          
T        Si     0.500000000000     0.059900000000     0.514275000000     0          
T        Si     0.500000000000     0.225000000000     0.517025000000     0          
T        Si     0.333333333333     0.163600000000     0.516175000000     0          
T        Si     0.598666666667     0.643300000000     0.640350000000     0          
T        Si     0.500000000000     0.940100000000     0.639275000000     0          
T        Si     0.500000000000     0.775000000000     0.642025000000     0          
T        Si     0.333333333333     0.836400000000     0.641175000000     0          
T        Si     0.401333333333     0.643300000000     0.734650000000     0          
T        Si     0.500000000000     0.940100000000     0.735725000000     0          
T        Si     0.500000000000     0.775000000000     0.732975000000     0          
T        Si     0.333333333333     0.836400000000     0.733825000000     0          
T        Si     0.598666666667     0.356700000000     0.609650000000     0          
T        Si     0.500000000000     0.059900000000     0.610725000000     0          
T        Si     0.500000000000     0.225000000000     0.607975000000     0          
T        Si     0.333333333333     0.163600000000     0.608825000000     0          
T        Si     0.598666666667     0.643300000000     0.734650000000     0          
T        Si     0.401333333333     0.356700000000     0.609650000000     0          
T        Si     0.598666666667     0.356700000000     0.515350000000     0          
T        Si     0.401333333333     0.643300000000     0.640350000000     0          
T        Si     0.568000000000     0.856700000000     0.515350000000     0          
T        Si     0.333333333333     0.559900000000     0.514275000000     0          
T        Si     0.333333333333     0.725000000000     0.517025000000     0          
T        Si     0.500000000000     0.663600000000     0.516175000000     0          
T        Si     0.432000000000     0.143300000000     0.640350000000     0          
T        Si     0.333333333333     0.440100000000     0.639275000000     0          
T        Si     0.333333333333     0.275000000000     0.642025000000     0          
T        Si     0.500000000000     0.336400000000     0.641175000000     0          
T        Si     0.568000000000     0.143300000000     0.734650000000     0          
T        Si     0.333333333333     0.440100000000     0.735725000000     0          
T        Si     0.333333333333     0.275000000000     0.732975000000     0          
T        Si     0.500000000000     0.336400000000     0.733825000000     0          
T        Si     0.432000000000     0.856700000000     0.609650000000     0          
T        Si     0.333333333333     0.559900000000     0.610725000000     0          
T        Si     0.333333333333     0.725000000000     0.607975000000     0          
T        Si     0.500000000000     0.663600000000     0.608825000000     0          
T        Si     0.432000000000     0.143300000000     0.734650000000     0          
T        Si     0.568000000000     0.856700000000     0.609650000000     0          
T        Si     0.432000000000     0.856700000000     0.515350000000     0          
T        Si     0.568000000000     0.143300000000     0.640350000000     0          
T        Si     0.401333333333     0.356700000000     0.765350000000     0          
T        Si     0.500000000000     0.059900000000     0.764275000000     0          
T        Si     0.500000000000     0.225000000000     0.767025000000     0          
T        Si     0.333333333333     0.163600000000     0.766175000000     0          
T        Si     0.598666666667     0.643300000000     0.890350000000     0          
T        Si     0.500000000000     0.940100000000     0.889275000000     0          
T        Si     0.500000000000     0.775000000000     0.892025000000     0          
T        Si     0.333333333333     0.836400000000     0.891175000000     0          
T        Si     0.401333333333     0.643300000000     0.984650000000     0          
T        Si     0.500000000000     0.940100000000     0.985725000000     0          
T        Si     0.500000000000     0.775000000000     0.982975000000     0          
T        Si     0.333333333333     0.836400000000     0.983825000000     0          
T        Si     0.598666666667     0.356700000000     0.859650000000     0          
T        Si     0.500000000000     0.059900000000     0.860725000000     0          
T        Si     0.500000000000     0.225000000000     0.857975000000     0          
T        Si     0.333333333333     0.163600000000     0.858825000000     0          
T        Si     0.598666666667     0.643300000000     0.984650000000     0          
T        Si     0.401333333333     0.356700000000     0.859650000000     0          
T        Si     0.598666666667     0.356700000000     0.765350000000     0          
T        Si     0.401333333333     0.643300000000     0.890350000000     0          
T        Si     0.568000000000     0.856700000000     0.765350000000     0          
T        Si     0.333333333333     0.559900000000     0.764275000000     0          
T        Si     0.333333333333     0.725000000000     0.767025000000     0          
T        Si     0.500000000000     0.663600000000     0.766175000000     0          
T        Si     0.432000000000     0.143300000000     0.890350000000     0          
T        Si     0.333333333333     0.440100000000     0.889275000000     0          
T        Si     0.333333333333     0.275000000000     0.892025000000     0          
T        Si     0.500000000000     0.336400000000     0.891175000000     0          
T        Si     0.568000000000     0.143300000000     0.984650000000     0          
T        Si     0.333333333333     0.440100000000     0.985725000000     0          
T        Si     0.333333333333     0.275000000000     0.982975000000     0          
T        Si     0.500000000000     0.336400000000     0.983825000000     0          
T        Si     0.432000000000     0.856700000000     0.859650000000     0          
T        Si     0.333333333333     0.559900000000     0.860725000000     0          
T        Si     0.333333333333     0.725000000000     0.857975000000     0          
T        Si     0.500000000000     0.663600000000     0.858825000000     0          
T        Si     0.432000000000     0.143300000000     0.984650000000     0          
T        Si     0.568000000000     0.856700000000     0.859650000000     0          
T        Si     0.432000000000     0.856700000000     0.765350000000     0          
T        Si     0.568000000000     0.143300000000     0.890350000000     0          
T        Si     0.734666666667     0.356700000000     0.015350000000     0          
T        Si     0.833333333333     0.059900000000     0.014275000000     0          
T        Si     0.833333333333     0.225000000000     0.017025000000     0          
T        Si     0.666666666667     0.163600000000     0.016175000000     0          
T        Si     0.932000000000     0.643300000000     0.140350000000     0          
T        Si     0.833333333333     0.940100000000     0.139275000000     0          
T        Si     0.833333333333     0.775000000000     0.142025000000     0          
T        Si     0.666666666667     0.836400000000     0.141175000000     0          
T        Si     0.734666666667     0.643300000000     0.234650000000     0          
T        Si     0.833333333333     0.940100000000     0.235725000000     0          
T        Si     0.833333333333     0.775000000000     0.232975000000     0          
T        Si     0.666666666667     0.836400000000     0.233825000000     0          
T        Si     0.932000000000     0.356700000000     0.109650000000     0          
T        Si     0.833333333333     0.059900000000     0.110725000000     0          
T        Si     0.833333333333     0.225000000000     0.107975000000     0          
T        Si     0.666666666667     0.163600000000     0.108825000000     0          
T        Si     0.932000000000     0.643300000000     0.234650000000     0          
T        Si     0.734666666667     0.356700000000     0.109650000000     0          
T        Si     0.932000000000     0.356700000000     0.015350000000     0          
T        Si     0.734666666667     0.643300000000     0.140350000000     0          
T        Si     0.901333333333     0.856700000000     0.015350000000     0          
T        Si     0.666666666667     0.559900000000     0.014275000000     0          
T        Si     0.666666666667     0.725000000000     0.017025000000     0          
T        Si     0.833333333333     0.663600000000     0.016175000000     0          
T        Si     0.765333333333     0.143300000000     0.140350000000     0          
T        Si     0.666666666667     0.440100000000     0.139275000000     0          
T        Si     0.666666666667     0.275000000000     0.142025000000     0          
T        Si     0.833333333333     0.336400000000     0.141175000000     0          
T        Si     0.901333333333     0.143300000000     0.234650000000     0          
T        Si     0.666666666667     0.440100000000     0.235725000000     0          
T        Si     0.666666666667     0.275000000000     0.232975000000     0          
T        Si     0.833333333333     0.336400000000     0.233825000000     0          
T        Si     0.765333333333     0.856700000000     0.109650000000     0          
T        Si     0.666666666667     0.559900000000     0.110725000000     0          
T        Si     0.666666666667     0.725000000000     0.107975000000     0          
T        Si     0.833333333333     0.663600000000     0.108825000000     0          
T        Si     0.765333333333     0.143300000000     0.234650000000     0          
T        Si     0.901333333333     0.856700000000     0.109650000000     0          
T        Si     0.765333333333     0.856700000000     0.015350000000     0          
T        Si     0.901333333333     0.143300000000     0.140350000000     0          
T        Si     0.734666666667     0.356700000000     0.265350000000     0          
T        Si     0.833333333333     0.059900000000     0.264275000000     0          
T        Si     0.833333333333     0.225000000000     0.267025000000     0          
T        Si     0.666666666667     0.163600000000     0.266175000000     0          
T        Si     0.932000000000     0.643300000000     0.390350000000     0          
T        Si     0.833333333333     0.940100000000     0.389275000000     0          
T        Si     0.833333333333     0.775000000000     0.392025000000     0          
T        Si     0.666666666667     0.836400000000     0.391175000000     0          
T        Si     0.734666666667     0.643300000000     0.484650000000     0          
T        Si     0.833333333333     0.940100000000     0.485725000000     0          
T        Si     0.833333333333     0.775000000000     0.482975000000     0          
T        Si     0.666666666667     0.836400000000     0.483825000000     0          
T        Si     0.932000000000     0.356700000000     0.359650000000     0          
T        Si     0.833333333333     0.059900000000     0.360725000000     0          
T        Si     0.833333333333     0.225000000000     0.357975000000     0          
T        Si     0.666666666667     0.163600000000     0.358825000000     0          
T        Si     0.932000000000     0.643300000000     0.484650000000     0          
T        Si     0.734666666667     0.356700000000     0.359650000000     0          
T        Si     0.932000000000     0.356700000000     0.265350000000     0          
T        Si     0.734666666667     0.643300000000     0.390350000000     0          
T        Si     0.901333333333     0.856700000000     0.265350000000     0          
T        Si     0.666666666667     0.559900000000     0.264275000000     0          
T        Si     0.666666666667     0.725000000000     0.267025000000     0          
T        Si     0.833333333333     0.663600000000     0.266175000000     0          
T        Si     0.765333333333     0.143300000000     0.390350000000     0          
T        Si     0.666666666667     0.440100000000     0.389275000000     0          
T        Si     0.666666666667     0.275000000000     0.392025000000     0          
T        Si     0.833333333333     0.336400000000     0.391175000000     0          
T        Si     0.901333333333     0.143300000000     0.484650000000     0          
T        Si     0.666666666667     0.440100000000     0.485725000000     0          
T        Si     0.666666666667     0.275000000000     0.482975000000     0          
T        Si     0.833333333333     0.336400000000     0.483825000000     0          
T        Si     0.765333333333     0.856700000000     0.359650000000     0          
T        Si     0.666666666667     0.559900000000     0.360725000000     0          
T        Si     0.666666666667     0.725000000000     0.357975000000     0          
T        Si     0.833333333333     0.663600000000     0.358825000000     0          
T        Si     0.765333333333     0.143300000000     0.484650000000     0          
T        Si     0.901333333333     0.856700000000     0.359650000000     0          
T        Si     0.765333333333     0.856700000000     0.265350000000     0          
T        Si     0.901333333333     0.143300000000     0.390350000000     0          
T        Si     0.734666666667     0.356700000000     0.515350000000     0          
T        Si     0.833333333333     0.059900000000     0.514275000000     0          
T        Si     0.833333333333     0.225000000000     0.517025000000     0          
T        Si     0.666666666667     0.163600000000     0.516175000000     0          
T        Si     0.932000000000     0.643300000000     0.640350000000     0          
T        Si     0.833333333333     0.940100000000     0.639275000000     0          
T        Si     0.833333333333     0.775000000000     0.642025000000     0          
T        Si     0.666666666667     0.836400000000     0.641175000000     0          
T        Si     0.734666666667     0.643300000000     0.734650000000     0          
T        Si     0.833333333333     0.940100000000     0.735725000000     0          
T        Si     0.833333333333     0.775000000000     0.732975000000     0          
T        Si     0.666666666667     0.836400000000     0.733825000000     0          
T        Si     0.932000000000     0.356700000000     0.609650000000     0          
T        Si     0.833333333333     0.059900000000     0.610725000000     0          
T        Si     0.833333333333     0.225000000000     0.607975000000     0          
T        Si     0.666666666667     0.163600000000     0.608825000000     0          
T        Si     0.932000000000     0.643300000000     0.734650000000     0          
T        Si     0.734666666667     0.356700000000     0.609650000000     0          
T        Si     0.932000000000     0.356700000000     0.515350000000     0          
T        Si     0.734666666667     0.643300000000     0.640350000000     0          
T        Si     0.901333333333     0.856700000000     0.515350000000     0          
T        Si     0.666666666667     0.559900000000     0.514275000000     0          
T        Si     0.666666666667     0.725000000000     0.517025000000     0          
T        Si     0.833333333333     0.663600000000     0.516175000000     0          
T        Si     0.765333333333     0.143300000000     0.640350000000     0          
T        Si     0.666666666667     0.440100000000     0.639275000000     0          
T        Si     0.666666666667     0.275000000000     0.642025000000     0          
T        Si     0.833333333333     0.336400000000     0.641175000000     0          
T        Si     0.901333333333     0.143300000000     0.734650000000     0          
T        Si     0.666666666667     0.440100000000     0.735725000000     0          
T        Si     0.666666666667     0.275000000000     0.732975000000     0          
T        Si     0.833333333333     0.336400000000     0.733825000000     0          
T        Si     0.765333333333     0.856700000000     0.609650000000     0          
T        Si     0.666666666667     0.559900000000     0.610725000000     0          
T        Si     0.666666666667     0.725000000000     0.607975000000     0          
T        Si     0.833333333333     0.663600000000     0.608825000000     0          
T        Si     0.765333333333     0.143300000000     0.734650000000     0          
T        Si     0.901333333333     0.856700000000     0.609650000000     0          
T        Si     0.765333333333     0.856700000000     0.515350000000     0          
T        Si     0.901333333333     0.143300000000     0.640350000000     0          
T        Si     0.734666666667     0.356700000000     0.765350000000     0          
T        Si     0.833333333333     0.059900000000     0.764275000000     0          
T        Si     0.833333333333     0.225000000000     0.767025000000     0          
T        Si     0.666666666667     0.163600000000     0.766175000000     0          
T        Si     0.932000000000     0.643300000000     0.890350000000     0          
T        Si     0.833333333333     0.940100000000     0.889275000000     0          
T        Si     0.833333333333     0.775000000000     0.892025000000     0          
T        Si     0.666666666667     0.836400000000     0.891175000000     0          
T        Si     0.734666666667     0.643300000000     0.984650000000     0          
T        Si     0.833333333333     0.940100000000     0.985725000000     0          
T        Si     0.833333333333     0.775000000000     0.982975000000     0          
T        Si     0.666666666667     0.836400000000     0.983825000000     0          
T        Si     0.932000000000     0.356700000000     0.859650000000     0          
T        Si     0.833333333333     0.059900000000     0.860725000000     0          
T        Si     0.833333333333     0.225000000000     0.857975000000     0          
T        Si     0.666666666667     0.163600000000     0.858825000000     0          
T        Si     0.932000000000     0.643300000000     0.984650000000     0          
T        Si     0.734666666667     0.356700000000     0.859650000000     0          
T        Si     0.932000000000     0.356700000000     0.765350000000     0          
T        Si     0.734666666667     0.643300000000     0.890350000000     0          
T        Si     0.901333333333     0.856700000000     0.765350000000     0          
T        Si     0.666666666667     0.559900000000     0.764275000000     0          
T        Si     0.666666666667     0.725000000000     0.767025000000     0          
T        Si     0.833333333333     0.663600000000     0.766175000000     0          
T        Si     0.765333333333     0.143300000000     0.890350000000     0          
T        Si     0.666666666667     0.440100000000     0.889275000000     0          
T        Si     0.666666666667     0.275000000000     0.892025000000     0          
T        Si     0.833333333333     0.336400000000     0.891175000000     0          
T        Si     0.901333333333     0.143300000000     0.984650000000     0          
T        Si     0.666666666667     0.440100000000     0.985725000000     0          
T        Si     0.666666666667     0.275000000000     0.982975000000     0          
T        Si     0.833333333333     0.336400000000     0.983825000000     0          
T        Si     0.765333333333     0.856700000000     0.859650000000     0          
T        Si     0.666666666667     0.559900000000     0.860725000000     0          
T        Si     0.666666666667     0.725000000000     0.857975000000     0          
T        Si     0.833333333333     0.663600000000     0.858825000000     0          
T        Si     0.765333333333     0.143300000000     0.984650000000     0          
T        Si     0.901333333333     0.856700000000     0.859650000000     0          
T        Si     0.765333333333     0.856700000000     0.765350000000     0          
T        Si     0.901333333333     0.143300000000     0.890350000000     0          
O        O      0.060200000000     0.346400000000     0.062500000000     0          
O        O      0.121833333333     0.358800000000     0.005825000000     0          
O        O      0.044900000000     0.310000000000     0.240100000000     0          
O        O      0.044866666667     0.411300000000     0.002825000000     0          
O        O      0.166666666667     0.000000000000     0.000000000000     0          
O        O      0.166666666667     0.062800000000     0.062500000000     0          
O        O      0.166666666667     0.246400000000     0.062500000000     0          
O        O      0.166666666667     0.273600000000     0.236325000000     0          
O        O      0.000000000000     0.145700000000     0.062500000000     0          
O        O      0.273133333333     0.653600000000     0.187500000000     0          
O        O      0.211500000000     0.641200000000     0.130825000000     0          
O        O      0.288433333333     0.690000000000     0.115100000000     0          
O        O      0.288466666667     0.588700000000     0.127825000000     0          
O        O      0.166666666667     0.000000000000     0.125000000000     0          
O        O      0.166666666667     0.937200000000     0.187500000000     0          
O        O      0.166666666667     0.753600000000     0.187500000000     0          
O        O      0.166666666667     0.726400000000     0.111325000000     0          
O        O      0.000000000000     0.854300000000     0.187500000000     0          
O        O      0.060200000000     0.653600000000     0.187500000000     0          
O        O      0.121833333333     0.641200000000     0.244175000000     0          
O        O      0.044900000000     0.690000000000     0.009900000000     0          
O        O      0.044866666667     0.588700000000     0.247175000000     0          
O        O      0.166666666667     0.726400000000     0.013675000000     0          
O        O      0.273133333333     0.346400000000     0.062500000000     0          
O        O      0.211500000000     0.358800000000     0.119175000000     0          
O        O      0.288433333333     0.310000000000     0.134900000000     0          
O        O      0.288466666667     0.411300000000     0.122175000000     0          
O        O      0.166666666667     0.273600000000     0.138675000000     0          
O        O      0.211500000000     0.641200000000     0.244175000000     0          
O        O      0.288433333333     0.690000000000     0.009900000000     0          
O        O      0.288466666667     0.588700000000     0.247175000000     0          
O        O      0.121833333333     0.358800000000     0.119175000000     0          
O        O      0.044900000000     0.310000000000     0.134900000000     0          
O        O      0.044866666667     0.411300000000     0.122175000000     0          
O        O      0.211500000000     0.358800000000     0.005825000000     0          
O        O      0.288433333333     0.310000000000     0.240100000000     0          
O        O      0.288466666667     0.411300000000     0.002825000000     0          
O        O      0.121833333333     0.641200000000     0.130825000000     0          
O        O      0.044900000000     0.690000000000     0.115100000000     0          
O        O      0.044866666667     0.588700000000     0.127825000000     0          
O        O      0.226866666667     0.846400000000     0.062500000000     0          
O        O      0.288500000000     0.858800000000     0.005825000000     0          
O        O      0.211566666667     0.810000000000     0.240100000000     0          
O        O      0.211533333333     0.911300000000     0.002825000000     0          
O        O      0.000000000000     0.500000000000     0.000000000000     0          
O        O      0.000000000000     0.562800000000     0.062500000000     0          
O        O      0.000000000000     0.746400000000     0.062500000000     0          
O        O      0.000000000000     0.773600000000     0.236325000000     0          
O        O      0.166666666667     0.645700000000     0.062500000000     0          
O        O      0.106466666667     0.153600000000     0.187500000000     0          
O        O      0.044833333333     0.141200000000     0.130825000000     0          
O        O      0.121766666667     0.190000000000     0.115100000000     0          
O        O      0.121800000000     0.088700000000     0.127825000000     0          
O        O      0.000000000000     0.500000000000     0.125000000000     0          
O        O      0.000000000000     0.437200000000     0.187500000000     0          
O        O      0.000000000000     0.253600000000     0.187500000000     0          
O        O      0.000000000000     0.226400000000     0.111325000000     0          
O        O      0.166666666667     0.354300000000     0.187500000000     0          
O        O      0.226866666667     0.153600000000     0.187500000000     0          
O        O      0.288500000000     0.141200000000     0.244175000000     0          
O        O      0.211566666667     0.190000000000     0.009900000000     0          
O        O      0.211533333333     0.088700000000     0.247175000000     0          
O        O      0.000000000000     0.226400000000     0.013675000000     0          
O        O      0.106466666667     0.846400000000     0.062500000000     0          
O        O      0.044833333333     0.858800000000     0.119175000000     0          
O        O      0.121766666667     0.810000000000     0.134900000000     0          
O        O      0.121800000000     0.911300000000     0.122175000000     0          
O        O      0.000000000000     0.773600000000     0.138675000000     0          
O        O      0.044833333333     0.141200000000     0.244175000000     0          
O        O      0.121766666667     0.190000000000     0.009900000000     0          
O        O      0.121800000000     0.088700000000     0.247175000000     0          
O        O      0.288500000000     0.858800000000     0.119175000000     0          
O        O      0.211566666667     0.810000000000     0.134900000000     0          
O        O      0.211533333333     0.911300000000     0.122175000000     0          
O        O      0.044833333333     0.858800000000     0.005825000000     0          
O        O      0.121766666667     0.810000000000     0.240100000000     0          
O        O      0.121800000000     0.911300000000     0.002825000000     0          
O        O      0.288500000000     0.141200000000     0.130825000000     0          
O        O      0.211566666667     0.190000000000     0.115100000000     0          
O        O      0.211533333333     0.088700000000     0.127825000000     0          
O        O      0.060200000000     0.346400000000     0.312500000000     0          
O        O      0.121833333333     0.358800000000     0.255825000000     0          
O        O      0.044900000000     0.310000000000     0.490100000000     0          
O        O      0.044866666667     0.411300000000     0.252825000000     0          
O        O      0.166666666667     0.000000000000     0.250000000000     0          
O        O      0.166666666667     0.062800000000     0.312500000000     0          
O        O      0.166666666667     0.246400000000     0.312500000000     0          
O        O      0.166666666667     0.273600000000     0.486325000000     0          
O        O      0.000000000000     0.145700000000     0.312500000000     0          
O        O      0.273133333333     0.653600000000     0.437500000000     0          
O        O      0.211500000000     0.641200000000     0.380825000000     0          
O        O      0.288433333333     0.690000000000     0.365100000000     0          
O        O      0.288466666667     0.588700000000     0.377825000000     0          
O        O      0.166666666667     0.000000000000     0.375000000000     0          
O        O      0.166666666667     0.937200000000     0.437500000000     0          
O        O      0.166666666667     0.753600000000     0.437500000000     0          
O        O      0.166666666667     0.726400000000     0.361325000000     0          
O        O      0.000000000000     0.854300000000     0.437500000000     0          
O        O      0.060200000000     0.653600000000     0.437500000000     0          
O        O      0.121833333333     0.641200000000     0.494175000000     0          
O        O      0.044900000000     0.690000000000     0.259900000000     0          
O        O      0.044866666667     0.588700000000     0.497175000000     0          
O        O      0.166666666667     0.726400000000     0.263675000000     0          
O        O      0.273133333333     0.346400000000     0.312500000000     0          
O        O      0.211500000000     0.358800000000     0.369175000000     0          
O        O      0.288433333333     0.310000000000     0.384900000000     0          
O        O      0.288466666667     0.411300000000     0.372175000000     0          
O        O      0.166666666667     0.273600000000     0.388675000000     0          
O        O      0.211500000000     0.641200000000     0.494175000000     0          
O        O      0.288433333333     0.690000000000     0.259900000000     0          
O        O      0.288466666667     0.588700000000     0.497175000000     0          
O        O      0.121833333333     0.358800000000     0.369175000000     0          
O        O      0.044900000000     0.310000000000     0.384900000000     0          
O        O      0.044866666667     0.411300000000     0.372175000000     0          
O        O      0.211500000000     0.358800000000     0.255825000000     0          
O        O      0.288433333333     0.310000000000     0.490100000000     0          
O        O      0.288466666667     0.411300000000     0.252825000000     0          
O        O      0.121833333333     0.641200000000     0.380825000000     0          
O        O      0.044900000000     0.690000000000     0.365100000000     0          
O        O      0.044866666667     0.588700000000     0.377825000000     0          
O        O      0.226866666667     0.846400000000     0.312500000000     0          
O        O      0.288500000000     0.858800000000     0.255825000000     0          
O        O      0.211566666667     0.810000000000     0.490100000000     0          
O        O      0.211533333333     0.911300000000     0.252825000000     0          
O        O      0.000000000000     0.500000000000     0.250000000000     0          
O        O      0.000000000000     0.562800000000     0.312500000000     0          
O        O      0.000000000000     0.746400000000     0.312500000000     0          
O        O      0.000000000000     0.773600000000     0.486325000000     0          
O        O      0.166666666667     0.645700000000     0.312500000000     0          
O        O      0.106466666667     0.153600000000     0.437500000000     0          
O        O      0.044833333333     0.141200000000     0.380825000000     0          
O        O      0.121766666667     0.190000000000     0.365100000000     0          
O        O      0.121800000000     0.088700000000     0.377825000000     0          
O        O      0.000000000000     0.500000000000     0.375000000000     0          
O        O      0.000000000000     0.437200000000     0.437500000000     0          
O        O      0.000000000000     0.253600000000     0.437500000000     0          
O        O      0.000000000000     0.226400000000     0.361325000000     0          
O        O      0.166666666667     0.354300000000     0.437500000000     0          
O        O      0.226866666667     0.153600000000     0.437500000000     0          
O        O      0.288500000000     0.141200000000     0.494175000000     0          
O        O      0.211566666667     0.190000000000     0.259900000000     0          
O        O      0.211533333333     0.088700000000     0.497175000000     0          
O        O      0.000000000000     0.226400000000     0.263675000000     0          
O        O      0.106466666667     0.846400000000     0.312500000000     0          
O        O      0.044833333333     0.858800000000     0.369175000000     0          
O        O      0.121766666667     0.810000000000     0.384900000000     0          
O        O      0.121800000000     0.911300000000     0.372175000000     0          
O        O      0.000000000000     0.773600000000     0.388675000000     0          
O        O      0.044833333333     0.141200000000     0.494175000000     0          
O        O      0.121766666667     0.190000000000     0.259900000000     0          
O        O      0.121800000000     0.088700000000     0.497175000000     0          
O        O      0.288500000000     0.858800000000     0.369175000000     0          
O        O      0.211566666667     0.810000000000     0.384900000000     0          
O        O      0.211533333333     0.911300000000     0.372175000000     0          
O        O      0.044833333333     0.858800000000     0.255825000000     0          
O        O      0.121766666667     0.810000000000     0.490100000000     0          
O        O      0.121800000000     0.911300000000     0.252825000000     0          
O        O      0.288500000000     0.141200000000     0.380825000000     0          
O        O      0.211566666667     0.190000000000     0.365100000000     0          
O        O      0.211533333333     0.088700000000     0.377825000000     0          
O        O      0.060200000000     0.346400000000     0.562500000000     0          
O        O      0.121833333333     0.358800000000     0.505825000000     0          
O        O      0.044900000000     0.310000000000     0.740100000000     0          
O        O      0.044866666667     0.411300000000     0.502825000000     0          
O        O      0.166666666667     0.000000000000     0.500000000000     0          
O        O      0.166666666667     0.062800000000     0.562500000000     0          
O        O      0.166666666667     0.246400000000     0.562500000000     0          
O        O      0.166666666667     0.273600000000     0.736325000000     0          
O        O      0.000000000000     0.145700000000     0.562500000000     0          
O        O      0.273133333333     0.653600000000     0.687500000000     0          
O        O      0.211500000000     0.641200000000     0.630825000000     0          
O        O      0.288433333333     0.690000000000     0.615100000000     0          
O        O      0.288466666667     0.588700000000     0.627825000000     0          
O        O      0.166666666667     0.000000000000     0.625000000000     0          
O        O      0.166666666667     0.937200000000     0.687500000000     0          
O        O      0.166666666667     0.753600000000     0.687500000000     0          
O        O      0.166666666667     0.726400000000     0.611325000000     0          
O        O      0.000000000000     0.854300000000     0.687500000000     0          
O        O      0.060200000000     0.653600000000     0.687500000000     0          
O        O      0.121833333333     0.641200000000     0.744175000000     0          
O        O      0.044900000000     0.690000000000     0.509900000000     0          
O        O      0.044866666667     0.588700000000     0.747175000000     0          
O        O      0.166666666667     0.726400000000     0.513675000000     0          
O        O      0.273133333333     0.346400000000     0.562500000000     0          
O        O      0.211500000000     0.358800000000     0.619175000000     0          
O        O      0.288433333333     0.310000000000     0.634900000000     0          
O        O      0.288466666667     0.411300000000     0.622175000000     0          
O        O      0.166666666667     0.273600000000     0.638675000000     0          
O        O      0.211500000000     0.641200000000     0.744175000000     0          
O        O      0.288433333333     0.690000000000     0.509900000000     0          
O        O      0.288466666667     0.588700000000     0.747175000000     0          
O        O      0.121833333333     0.358800000000     0.619175000000     0          
O        O      0.044900000000     0.310000000000     0.634900000000     0          
O        O      0.044866666667     0.411300000000     0.622175000000     0          
O        O      0.211500000000     0.358800000000     0.505825000000     0          
O        O      0.288433333333     0.310000000000     0.740100000000     0          
O        O      0.288466666667     0.411300000000     0.502825000000     0          
O        O      0.121833333333     0.641200000000     0.630825000000     0          
O        O      0.044900000000     0.690000000000     0.615100000000     0          
O        O      0.044866666667     0.588700000000     0.627825000000     0          
O        O      0.226866666667     0.846400000000     0.562500000000     0          
O        O      0.288500000000     0.858800000000     0.505825000000     0          
O        O      0.211566666667     0.810000000000     0.740100000000     0          
O        O      0.211533333333     0.911300000000     0.502825000000     0          
O        O      0.000000000000     0.500000000000     0.500000000000     0          
O        O      0.000000000000     0.562800000000     0.562500000000     0          
O        O      0.000000000000     0.746400000000     0.562500000000     0          
O        O      0.000000000000     0.773600000000     0.736325000000     0          
O        O      0.166666666667     0.645700000000     0.562500000000     0          
O        O      0.106466666667     0.153600000000     0.687500000000     0          
O        O      0.044833333333     0.141200000000     0.630825000000     0          
O        O      0.121766666667     0.190000000000     0.615100000000     0          
O        O      0.121800000000     0.088700000000     0.627825000000     0          
O        O      0.000000000000     0.500000000000     0.625000000000     0          
O        O      0.000000000000     0.437200000000     0.687500000000     0          
O        O      0.000000000000     0.253600000000     0.687500000000     0          
O        O      0.000000000000     0.226400000000     0.611325000000     0          
O        O      0.166666666667     0.354300000000     0.687500000000     0          
O        O      0.226866666667     0.153600000000     0.687500000000     0          
O        O      0.288500000000     0.141200000000     0.744175000000     0          
O        O      0.211566666667     0.190000000000     0.509900000000     0          
O        O      0.211533333333     0.088700000000     0.747175000000     0          
O        O      0.000000000000     0.226400000000     0.513675000000     0          
O        O      0.106466666667     0.846400000000     0.562500000000     0          
O        O      0.044833333333     0.858800000000     0.619175000000     0          
O        O      0.121766666667     0.810000000000     0.634900000000     0          
O        O      0.121800000000     0.911300000000     0.622175000000     0          
O        O      0.000000000000     0.773600000000     0.638675000000     0          
O        O      0.044833333333     0.141200000000     0.744175000000     0          
O        O      0.121766666667     0.190000000000     0.509900000000     0          
O        O      0.121800000000     0.088700000000     0.747175000000     0          
O        O      0.288500000000     0.858800000000     0.619175000000     0          
O        O      0.211566666667     0.810000000000     0.634900000000     0          
O        O      0.211533333333     0.911300000000     0.622175000000     0          
O        O      0.044833333333     0.858800000000     0.505825000000     0          
O        O      0.121766666667     0.810000000000     0.740100000000     0          
O        O      0.121800000000     0.911300000000     0.502825000000     0          
O        O      0.288500000000     0.141200000000     0.630825000000     0          
O        O      0.211566666667     0.190000000000     0.615100000000     0          
O        O      0.211533333333     0.088700000000     0.627825000000     0          
O        O      0.060200000000     0.346400000000     0.812500000000     0          
O        O      0.121833333333     0.358800000000     0.755825000000     0          
O        O      0.044900000000     0.310000000000     0.990100000000     0          
O        O      0.044866666667     0.411300000000     0.752825000000     0          
O        O      0.166666666667     0.000000000000     0.750000000000     0          
O        O      0.166666666667     0.062800000000     0.812500000000     0          
O        O      0.166666666667     0.246400000000     0.812500000000     0          
O        O      0.166666666667     0.273600000000     0.986325000000     0          
O        O      0.000000000000     0.145700000000     0.812500000000     0          
O        O      0.273133333333     0.653600000000     0.937500000000     0          
O        O      0.211500000000     0.641200000000     0.880825000000     0          
O        O      0.288433333333     0.690000000000     0.865100000000     0          
O        O      0.288466666667     0.588700000000     0.877825000000     0          
O        O      0.166666666667     0.000000000000     0.875000000000     0          
O        O      0.166666666667     0.937200000000     0.937500000000     0          
O        O      0.166666666667     0.753600000000     0.937500000000     0          
O        O      0.166666666667     0.726400000000     0.861325000000     0          
O        O      0.000000000000     0.854300000000     0.937500000000     0          
O        O      0.060200000000     0.653600000000     0.937500000000     0          
O        O      0.121833333333     0.641200000000     0.994175000000     0          
O        O      0.044900000000     0.690000000000     0.759900000000     0          
O        O      0.044866666667     0.588700000000     0.997175000000     0          
O        O      0.166666666667     0.726400000000     0.763675000000     0          
O        O      0.273133333333     0.346400000000     0.812500000000     0          
O        O      0.211500000000     0.358800000000     0.869175000000     0          
O        O      0.288433333333     0.310000000000     0.884900000000     0          
O        O      0.288466666667     0.411300000000     0.872175000000     0          
O        O      0.166666666667     0.273600000000     0.888675000000     0          
O        O      0.211500000000     0.641200000000     0.994175000000     0          
O        O      0.288433333333     0.690000000000     0.759900000000     0          
O        O      0.288466666667     0.588700000000     0.997175000000     0          
O        O      0.121833333333     0.358800000000     0.869175000000     0          
O        O      0.044900000000     0.310000000000     0.884900000000     0          
O        O      0.044866666667     0.411300000000     0.872175000000     0          
O        O      0.211500000000     0.358800000000     0.755825000000     0          
O        O      0.288433333333     0.310000000000     0.990100000000     0          
O        O      0.288466666667     0.411300000000     0.752825000000     0          
O        O      0.121833333333     0.641200000000     0.880825000000     0          
O        O      0.044900000000     0.690000000000     0.865100000000     0          
O        O      0.044866666667     0.588700000000     0.877825000000     0          
O        O      0.226866666667     0.846400000000     0.812500000000     0          
O        O      0.288500000000     0.858800000000     0.755825000000     0          
O        O      0.211566666667     0.810000000000     0.990100000000     0          
O        O      0.211533333333     0.911300000000     0.752825000000     0          
O        O      0.000000000000     0.500000000000     0.750000000000     0          
O        O      0.000000000000     0.562800000000     0.812500000000     0          
O        O      0.000000000000     0.746400000000     0.812500000000     0          
O        O      0.000000000000     0.773600000000     0.986325000000     0          
O        O      0.166666666667     0.645700000000     0.812500000000     0          
O        O      0.106466666667     0.153600000000     0.937500000000     0          
O        O      0.044833333333     0.141200000000     0.880825000000     0          
O        O      0.121766666667     0.190000000000     0.865100000000     0          
O        O      0.121800000000     0.088700000000     0.877825000000     0          
O        O      0.000000000000     0.500000000000     0.875000000000     0          
O        O      0.000000000000     0.437200000000     0.937500000000     0          
O        O      0.000000000000     0.253600000000     0.937500000000     0          
O        O      0.000000000000     0.226400000000     0.861325000000     0          
O        O      0.166666666667     0.354300000000     0.937500000000     0          
O        O      0.226866666667     0.153600000000     0.937500000000     0          
O        O      0.288500000000     0.141200000000     0.994175000000     0          
O        O      0.211566666667     0.190000000000     0.759900000000     0          
O        O      0.211533333333     0.088700000000     0.997175000000     0          
O        O      0.000000000000     0.226400000000     0.763675000000     0          
O        O      0.106466666667     0.846400000000     0.812500000000     0          
O        O      0.044833333333     0.858800000000     0.869175000000     0          
O        O      0.121766666667     0.810000000000     0.884900000000     0          
O        O      0.121800000000     0.911300000000     0.872175000000     0          
O        O      0.000000000000     0.773600000000     0.888675000000     0          
O        O      0.044833333333     0.141200000000     0.994175000000     0          
O        O      0.121766666667     0.190000000000     0.759900000000     0          
O        O      0.121800000000     0.088700000000     0.997175000000     0          
O        O      0.288500000000     0.858800000000     0.869175000000     0          
O        O      0.211566666667     0.810000000000     0.884900000000     0          
O        O      0.211533333333     0.911300000000     0.872175000000     0          
O        O      0.044833333333     0.858800000000     0.755825000000     0          
O        O      0.121766666667     0.810000000000     0.990100000000     0          
O        O      0.121800000000     0.911300000000     0.752825000000     0          
O        O      0.288500000000     0.141200000000     0.880825000000     0          
O        O      0.211566666667     0.190000000000     0.865100000000     0          
O        O      0.211533333333     0.088700000000     0.877825000000     0          
O        O      0.393533333333     0.346400000000     0.062500000000     0          
O        O      0.455166666667     0.358800000000     0.005825000000     0          
O        O      0.378233333333     0.310000000000     0.240100000000     0          
O        O      0.378200000000     0.411300000000     0.002825000000     0          
O        O      0.500000000000     0.000000000000     0.000000000000     0          
O        O      0.500000000000     0.062800000000     0.062500000000     0          
O        O      0.500000000000     0.246400000000     0.062500000000     0          
O        O      0.500000000000     0.273600000000     0.236325000000     0          
O        O      0.333333333333     0.145700000000     0.062500000000     0          
O        O      0.606466666667     0.653600000000     0.187500000000     0          
O        O      0.544833333333     0.641200000000     0.130825000000     0          
O        O      0.621766666667     0.690000000000     0.115100000000     0          
O        O      0.621800000000     0.588700000000     0.127825000000     0          
O        O      0.500000000000     0.000000000000     0.125000000000     0          
O        O      0.500000000000     0.937200000000     0.187500000000     0          
O        O      0.500000000000     0.753600000000     0.187500000000     0          
O        O      0.500000000000     0.726400000000     0.111325000000     0          
O        O      0.333333333333     0.854300000000     0.187500000000     0          
O        O      0.393533333333     0.653600000000     0.187500000000     0          
O        O      0.455166666667     0.641200000000     0.244175000000     0          
O        O      0.378233333333     0.690000000000     0.009900000000     0          
O        O      0.378200000000     0.588700000000     0.247175000000     0          
O        O      0.500000000000     0.726400000000     0.013675000000     0          
O        O      0.606466666667     0.346400000000     0.062500000000     0          
O        O      0.544833333333     0.358800000000     0.119175000000     0          
O        O      0.621766666667     0.310000000000     0.134900000000     0          
O        O      0.621800000000     0.411300000000     0.122175000000     0          
O        O      0.500000000000     0.273600000000     0.138675000000     0          
O        O      0.544833333333     0.641200000000     0.244175000000     0          
O        O      0.621766666667     0.690000000000     0.009900000000     0          
O        O      0.621800000000     0.588700000000     0.247175000000     0          
O        O      0.455166666667     0.358800000000     0.119175000000     0          
O        O      0.378233333333     0.310000000000     0.134900000000     0          
O        O      0.378200000000     0.411300000000     0.122175000000     0          
O        O      0.544833333333     0.358800000000     0.005825000000     0          
O        O      0.621766666667     0.310000000000     0.240100000000     0          
O        O      0.621800000000     0.411300000000     0.002825000000     0          
O        O      0.455166666667     0.641200000000     0.130825000000     0          
O        O      0.378233333333     0.690000000000     0.115100000000     0          
O        O      0.378200000000     0.588700000000     0.127825000000     0          
O        O      0.560200000000     0.846400000000     0.062500000000     0          
O        O      0.621833333333     0.858800000000     0.005825000000     0          
O        O      0.544900000000     0.810000000000     0.240100000000     0          
O        O      0.544866666667     0.911300000000     0.002825000000     0          
O        O      0.333333333333     0.500000000000     0.000000000000     0          
O        O      0.333333333333     0.562800000000     0.062500000000     0          
O        O      0.333333333333     0.746400000000     0.062500000000     0          
O        O      0.333333333333     0.773600000000     0.236325000000     0          
O        O      0.500000000000     0.645700000000     0.062500000000     0          
O        O      0.439800000000     0.153600000000     0.187500000000     0          
O        O      0.378166666667     0.141200000000     0.130825000000     0          
O        O      0.455100000000     0.190000000000     0.115100000000     0          
O        O      0.455133333333     0.088700000000     0.127825000000     0          
O        O      0.333333333333     0.500000000000     0.125000000000     0          
O        O      0.333333333333     0.437200000000     0.187500000000     0          
O        O      0.333333333333     0.253600000000     0.187500000000     0          
O        O      0.333333333333     0.226400000000     0.111325000000     0          
O        O      0.500000000000     0.354300000000     0.187500000000     0          
O        O      0.560200000000     0.153600000000     0.187500000000     0          
O        O      0.621833333333     0.141200000000     0.244175000000     0          
O        O      0.544900000000     0.190000000000     0.009900000000     0          
O        O      0.544866666667     0.088700000000     0.247175000000     0          
O        O      0.333333333333     0.226400000000     0.013675000000     0          
O        O      0.439800000000     0.846400000000     0.062500000000     0          
O        O      0.378166666667     0.858800000000     0.119175000000     0          
O        O      0.455100000000     0.810000000000     0.134900000000     0          
O        O      0.455133333333     0.911300000000     0.122175000000     0          
O        O      0.333333333333     0.773600000000     0.138675000000     0          
O        O      0.378166666667     0.141200000000     0.244175000000     0          
O        O      0.455100000000     0.190000000000     0.009900000000     0          
O        O      0.455133333333     0.088700000000     0.247175000000     0          
O        O      0.621833333333     0.858800000000     0.119175000000     0          
O        O      0.544900000000     0.810000000000     0.134900000000     0          
O        O      0.544866666667     0.911300000000     0.122175000000     0          
O        O      0.378166666667     0.858800000000     0.005825000000     0          
O        O      0.455100000000     0.810000000000     0.240100000000     0          
O        O      0.455133333333     0.911300000000     0.002825000000     0          
O        O      0.621833333333     0.141200000000     0.130825000000     0          
O        O      0.544900000000     0.190000000000     0.115100000000     0          
O        O      0.544866666667     0.088700000000     0.127825000000     0          
O        O      0.393533333333     0.346400000000     0.312500000000     0          
O        O      0.455166666667     0.358800000000     0.255825000000     0          
O        O      0.378233333333     0.310000000000     0.490100000000     0          
O        O      0.378200000000     0.411300000000     0.252825000000     0          
O        O      0.500000000000     0.000000000000     0.250000000000     0          
O        O      0.500000000000     0.062800000000     0.312500000000     0          
O        O      0.500000000000     0.246400000000     0.312500000000     0          
O        O      0.500000000000     0.273600000000     0.486325000000     0          
O        O      0.333333333333     0.145700000000     0.312500000000     0          
O        O      0.606466666667     0.653600000000     0.437500000000     0          
O        O      0.544833333333     0.641200000000     0.380825000000     0          
O        O      0.621766666667     0.690000000000     0.365100000000     0          
O        O      0.621800000000     0.588700000000     0.377825000000     0          
O        O      0.500000000000     0.000000000000     0.375000000000     0          
O        O      0.500000000000     0.937200000000     0.437500000000     0          
O        O      0.500000000000     0.753600000000     0.437500000000     0          
O        O      0.500000000000     0.726400000000     0.361325000000     0          
O        O      0.333333333333     0.854300000000     0.437500000000     0          
O        O      0.393533333333     0.653600000000     0.437500000000     0          
O        O      0.455166666667     0.641200000000     0.494175000000     0          
O        O      0.378233333333     0.690000000000     0.259900000000     0          
O        O      0.378200000000     0.588700000000     0.497175000000     0          
O        O      0.500000000000     0.726400000000     0.263675000000     0          
O        O      0.606466666667     0.346400000000     0.312500000000     0          
O        O      0.544833333333     0.358800000000     0.369175000000     0          
O        O      0.621766666667     0.310000000000     0.384900000000     0          
O        O      0.621800000000     0.411300000000     0.372175000000     0          
O        O      0.500000000000     0.273600000000     0.388675000000     0          
O        O      0.544833333333     0.641200000000     0.494175000000     0          
O        O      0.621766666667     0.690000000000     0.259900000000     0          
O        O      0.621800000000     0.588700000000     0.497175000000     0          
O        O      0.455166666667     0.358800000000     0.369175000000     0          
O        O      0.378233333333     0.310000000000     0.384900000000     0          
O        O      0.378200000000     0.411300000000     0.372175000000     0          
O        O      0.544833333333     0.358800000000     0.255825000000     0          
O        O      0.621766666667     0.310000000000     0.490100000000     0          
O        O      0.621800000000     0.411300000000     0.252825000000     0          
O        O      0.455166666667     0.641200000000     0.380825000000     0          
O        O      0.378233333333     0.690000000000     0.365100000000     0          
O        O      0.378200000000     0.588700000000     0.377825000000     0          
O        O      0.560200000000     0.846400000000     0.312500000000     0          
O        O      0.621833333333     0.858800000000     0.255825000000     0          
O        O      0.544900000000     0.810000000000     0.490100000000     0          
O        O      0.544866666667     0.911300000000     0.252825000000     0          
O        O      0.333333333333     0.500000000000     0.250000000000     0          
O        O      0.333333333333     0.562800000000     0.312500000000     0          
O        O      0.333333333333     0.746400000000     0.312500000000     0          
O        O      0.333333333333     0.773600000000     0.486325000000     0          
O        O      0.500000000000     0.645700000000     0.312500000000     0          
O        O      0.439800000000     0.153600000000     0.437500000000     0          
O        O      0.378166666667     0.141200000000     0.380825000000     0          
O        O      0.455100000000     0.190000000000     0.365100000000     0          
O        O      0.455133333333     0.088700000000     0.377825000000     0          
O        O      0.333333333333     0.500000000000     0.375000000000     0          
O        O      0.333333333333     0.437200000000     0.437500000000     0          
O        O      0.333333333333     0.253600000000     0.437500000000     0          
O        O      0.333333333333     0.226400000000     0.361325000000     0          
O        O      0.500000000000     0.354300000000     0.437500000000     0          
O        O      0.560200000000     0.153600000000     0.437500000000     0          
O        O      0.621833333333     0.141200000000     0.494175000000     0          
O        O      0.544900000000     0.190000000000     0.259900000000     0          
O        O      0.544866666667     0.088700000000     0.497175000000     0          
O        O      0.333333333333     0.226400000000     0.263675000000     0          
O        O      0.439800000000     0.846400000000     0.312500000000     0          
O        O      0.378166666667     0.858800000000     0.369175000000     0          
O        O      0.455100000000     0.810000000000     0.384900000000     0          
O        O      0.455133333333     0.911300000000     0.372175000000     0          
O        O      0.333333333333     0.773600000000     0.388675000000     0          
O        O      0.378166666667     0.141200000000     0.494175000000     0          
O        O      0.455100000000     0.190000000000     0.259900000000     0          
O        O      0.455133333333     0.088700000000     0.497175000000     0          
O        O      0.621833333333     0.858800000000     0.369175000000     0          
O        O      0.544900000000     0.810000000000     0.384900000000     0          
O        O      0.544866666667     0.911300000000     0.372175000000     0          
O        O      0.378166666667     0.858800000000     0.255825000000     0          
O        O      0.455100000000     0.810000000000     0.490100000000     0          
O        O      0.455133333333     0.911300000000     0.252825000000     0          
O        O      0.621833333333     0.141200000000     0.380825000000     0          
O        O      0.544900000000     0.190000000000     0.365100000000     0          
O        O      0.544866666667     0.088700000000     0.377825000000     0          
O        O      0.393533333333     0.346400000000     0.562500000000     0          
O        O      0.455166666667     0.358800000000     0.505825000000     0          
O        O      0.378233333333     0.310000000000     0.740100000000     0          
O        O      0.378200000000     0.411300000000     0.502825000000     0          
O        O      0.500000000000     0.000000000000     0.500000000000     0          
O        O      0.500000000000     0.062800000000     0.562500000000     0          
O        O      0.500000000000     0.246400000000     0.562500000000     0          
O        O      0.500000000000     0.273600000000     0.736325000000     0          
O        O      0.333333333333     0.145700000000     0.562500000000     0          
O        O      0.606466666667     0.653600000000     0.687500000000     0          
O        O      0.544833333333     0.641200000000     0.630825000000     0          
O        O      0.621766666667     0.690000000000     0.615100000000     0          
O        O      0.621800000000     0.588700000000     0.627825000000     0          
O        O      0.500000000000     0.000000000000     0.625000000000     0          
O        O      0.500000000000     0.937200000000     0.687500000000     0          
O        O      0.500000000000     0.753600000000     0.687500000000     0          
O        O      0.500000000000     0.726400000000     0.611325000000     0          
O        O      0.333333333333     0.854300000000     0.687500000000     0          
O        O      0.393533333333     0.653600000000     0.687500000000     0          
O        O      0.455166666667     0.641200000000     0.744175000000     0          
O        O      0.378233333333     0.690000000000     0.509900000000     0          
O        O      0.378200000000     0.588700000000     0.747175000000     0          
O        O      0.500000000000     0.726400000000     0.513675000000     0          
O        O      0.606466666667     0.346400000000     0.562500000000     0          
O        O      0.544833333333     0.358800000000     0.619175000000     0          
O        O      0.621766666667     0.310000000000     0.634900000000     0          
O        O      0.621800000000     0.411300000000     0.622175000000     0          
O        O      0.500000000000     0.273600000000     0.638675000000     0          
O        O      0.544833333333     0.641200000000     0.744175000000     0          
O        O      0.621766666667     0.690000000000     0.509900000000     0          
O        O      0.621800000000     0.588700000000     0.747175000000     0          
O        O      0.455166666667     0.358800000000     0.619175000000     0          
O        O      0.378233333333     0.310000000000     0.634900000000     0          
O        O      0.378200000000     0.411300000000     0.622175000000     0          
O        O      0.544833333333     0.358800000000     0.505825000000     0          
O        O      0.621766666667     0.310000000000     0.740100000000     0          
O        O      0.621800000000     0.411300000000     0.502825000000     0          
O        O      0.455166666667     0.641200000000     0.630825000000     0          
O        O      0.378233333333     0.690000000000     0.615100000000     0          
O        O      0.378200000000     0.588700000000     0.627825000000     0          
O        O      0.560200000000     0.846400000000     0.562500000000     0          
O        O      0.621833333333     0.858800000000     0.505825000000     0          
O        O      0.544900000000     0.810000000000     0.740100000000     0          
O        O      0.544866666667     0.911300000000     0.502825000000     0          
O        O      0.333333333333     0.500000000000     0.500000000000     0          
O        O      0.333333333333     0.562800000000     0.562500000000     0          
O        O      0.333333333333     0.746400000000     0.562500000000     0          
O        O      0.333333333333     0.773600000000     0.736325000000     0          
O        O      0.500000000000     0.645700000000     0.562500000000     0          
O        O      0.439800000000     0.153600000000     0.687500000000     0          
O        O      0.378166666667     0.141200000000     0.630825000000     0          
O        O      0.455100000000     0.190000000000     0.615100000000     0          
O        O      0.455133333333     0.088700000000     0.627825000000     0          
O        O      0.333333333333     0.500000000000     0.625000000000     0          
O        O      0.333333333333     0.437200000000     0.687500000000     0          
O        O      0.333333333333     0.253600000000     0.687500000000     0          
O        O      0.333333333333     0.226400000000     0.611325000000     0          
O        O      0.500000000000     0.354300000000     0.687500000000     0          
O        O      0.560200000000     0.153600000000     0.687500000000     0          
O        O      0.621833333333     0.141200000000     0.744175000000     0          
O        O      0.544900000000     0.190000000000     0.509900000000     0          
O        O      0.544866666667     0.088700000000     0.747175000000     0          
O        O      0.333333333333     0.226400000000     0.513675000000     0          
O        O      0.439800000000     0.846400000000     0.562500000000     0          
O        O      0.378166666667     0.858800000000     0.619175000000     0          
O        O      0.455100000000     0.810000000000     0.634900000000     0          
O        O      0.455133333333     0.911300000000     0.622175000000     0          
O        O      0.333333333333     0.773600000000     0.638675000000     0          
O        O      0.378166666667     0.141200000000     0.744175000000     0          
O        O      0.455100000000     0.190000000000     0.509900000000     0          
O        O      0.455133333333     0.088700000000     0.747175000000     0          
O        O      0.621833333333     0.858800000000     0.619175000000     0          
O        O      0.544900000000     0.810000000000     0.634900000000     0          
O        O      0.544866666667     0.911300000000     0.622175000000     0          
O        O      0.378166666667     0.858800000000     0.505825000000     0          
O        O      0.455100000000     0.810000000000     0.740100000000     0          
O        O      0.455133333333     0.911300000000     0.502825000000     0          
O        O      0.621833333333     0.141200000000     0.630825000000     0          
O        O      0.544900000000     0.190000000000     0.615100000000     0          
O        O      0.544866666667     0.088700000000     0.627825000000     0          
O        O      0.393533333333     0.346400000000     0.812500000000     0          
O        O      0.455166666667     0.358800000000     0.755825000000     0          
O        O      0.378233333333     0.310000000000     0.990100000000     0          
O        O      0.378200000000     0.411300000000     0.752825000000     0          
O        O      0.500000000000     0.000000000000     0.750000000000     0          
O        O      0.500000000000     0.062800000000     0.812500000000     0          
O        O      0.500000000000     0.246400000000     0.812500000000     0          
O        O      0.500000000000     0.273600000000     0.986325000000     0          
O        O      0.333333333333     0.145700000000     0.812500000000     0          
O        O      0.606466666667     0.653600000000     0.937500000000     0          
O        O      0.544833333333     0.641200000000     0.880825000000     0          
O        O      0.621766666667     0.690000000000     0.865100000000     0          
O        O      0.621800000000     0.588700000000     0.877825000000     0          
O        O      0.500000000000     0.000000000000     0.875000000000     0          
O        O      0.500000000000     0.937200000000     0.937500000000     0          
O        O      0.500000000000     0.753600000000     0.937500000000     0          
O        O      0.500000000000     0.726400000000     0.861325000000     0          
O        O      0.333333333333     0.854300000000     0.937500000000     0          
O        O      0.393533333333     0.653600000000     0.937500000000     0          
O        O      0.455166666667     0.641200000000     0.994175000000     0          
O        O      0.378233333333     0.690000000000     0.759900000000     0          
O        O      0.378200000000     0.588700000000     0.997175000000     0          
O        O      0.500000000000     0.726400000000     0.763675000000     0          
O        O      0.606466666667     0.346400000000     0.812500000000     0          
O        O      0.544833333333     0.358800000000     0.869175000000     0          
O        O      0.621766666667     0.310000000000     0.884900000000     0          
O        O      0.621800000000     0.411300000000     0.872175000000     0          
O        O      0.500000000000     0.273600000000     0.888675000000     0          
O        O      0.544833333333     0.641200000000     0.994175000000     0          
O        O      0.621766666667     0.690000000000     0.759900000000     0          
O        O      0.621800000000     0.588700000000     0.997175000000     0          
O        O      0.455166666667     0.358800000000     0.869175000000     0          
O        O      0.378233333333     0.310000000000     0.884900000000     0          
O        O      0.378200000000     0.411300000000     0.872175000000     0          
O        O      0.544833333333     0.358800000000     0.755825000000     0          
O        O      0.621766666667     0.310000000000     0.990100000000     0          
O        O      0.621800000000     0.411300000000     0.752825000000     0          
O        O      0.455166666667     0.641200000000     0.880825000000     0          
O        O      0.378233333333     0.690000000000     0.865100000000     0          
O        O      0.378200000000     0.588700000000     0.877825000000     0          
O        O      0.560200000000     0.846400000000     0.812500000000     0          
O        O      0.621833333333     0.858800000000     0.755825000000     0          
O        O      0.544900000000     0.810000000000     0.990100000000     0          
O        O      0.544866666667     0.911300000000     0.752825000000     0          
O        O      0.333333333333     0.500000000000     0.750000000000     0          
O        O      0.333333333333     0.562800000000     0.812500000000     0          
O        O      0.333333333333     0.746400000000     0.812500000000     0          
O        O      0.333333333333     0.773600000000     0.986325000000     0          
O        O      0.500000000000     0.645700000000     0.812500000000     0          
O        O      0.439800000000     0.153600000000     0.937500000000     0          
O        O      0.378166666667     0.141200000000     0.880825000000     0          
O        O      0.455100000000     0.190000000000     0.865100000000     0          
O        O      0.455133333333     0.088700000000     0.877825000000     0          
O        O      0.333333333333     0.500000000000     0.875000000000     0          
O        O      0.333333333333     0.437200000000     0.937500000000     0          
O        O      0.333333333333     0.253600000000     0.937500000000     0          
O        O      0.333333333333     0.226400000000     0.861325000000     0          
O        O      0.500000000000     0.354300000000     0.937500000000     0          
O        O      0.560200000000     0.153600000000     0.937500000000     0          
O        O      0.621833333333     0.141200000000     0.994175000000     0          
O        O      0.544900000000     0.190000000000     0.759900000000     0          
O        O      0.544866666667     0.088700000000     0.997175000000     0          
O        O      0.333333333333     0.226400000000     0.763675000000     0          
O        O      0.439800000000     0.846400000000     0.812500000000     0          
O        O      0.378166666667     0.858800000000     0.869175000000     0          
O        O      0.455100000000     0.810000000000     0.884900000000     0          
O        O      0.455133333333     0.911300000000     0.872175000000     0          
O        O      0.333333333333     0.773600000000     0.888675000000     0          
O        O      0.378166666667     0.141200000000     0.994175000000     0          
O        O      0.455100000000     0.190000000000     0.759900000000     0          
O        O      0.455133333333     0.088700000000     0.997175000000     0          
O        O      0.621833333333     0.858800000000     0.869175000000     0          
O        O      0.544900000000     0.810000000000     0.884900000000     0          
O        O      0.544866666667     0.911300000000     0.872175000000     0          
O        O      0.378166666667     0.858800000000     0.755825000000     0          
O        O      0.455100000000     0.810000000000     0.990100000000     0          
O        O      0.455133333333     0.911300000000     0.752825000000     0          
O        O      0.621833333333     0.141200000000     0.880825000000     0          
O        O      0.544900000000     0.190000000000     0.865100000000     0          
O        O      0.544866666667     0.088700000000     0.877825000000     0          
O        O      0.726866666667     0.346400000000     0.062500000000     0          
O        O      0.788500000000     0.358800000000     0.005825000000     0          
O        O      0.711566666667     0.310000000000     0.240100000000     0          
O        O      0.711533333333     0.411300000000     0.002825000000     0          
O        O      0.833333333333     0.000000000000     0.000000000000     0          
O        O      0.833333333333     0.062800000000     0.062500000000     0          
O        O      0.833333333333     0.246400000000     0.062500000000     0          
O        O      0.833333333333     0.273600000000     0.236325000000     0          
O        O      0.666666666667     0.145700000000     0.062500000000     0          
O        O      0.939800000000     0.653600000000     0.187500000000     0          
O        O      0.878166666667     0.641200000000     0.130825000000     0          
O        O      0.955100000000     0.690000000000     0.115100000000     0          
O        O      0.955133333333     0.588700000000     0.127825000000     0          
O        O      0.833333333333     0.000000000000     0.125000000000     0          
O        O      0.833333333333     0.937200000000     0.187500000000     0          
O        O      0.833333333333     0.753600000000     0.187500000000     0          
O        O      0.833333333333     0.726400000000     0.111325000000     0          
O        O      0.666666666667     0.854300000000     0.187500000000     0          
O        O      0.726866666667     0.653600000000     0.187500000000     0          
O        O      0.788500000000     0.641200000000     0.244175000000     0          
O        O      0.711566666667     0.690000000000     0.009900000000     0          
O        O      0.711533333333     0.588700000000     0.247175000000     0          
O        O      0.833333333333     0.726400000000     0.013675000000     0          
O        O      0.939800000000     0.346400000000     0.062500000000     0          
O        O      0.878166666667     0.358800000000     0.119175000000     0          
O        O      0.955100000000     0.310000000000     0.134900000000     0          
O        O      0.955133333333     0.411300000000     0.122175000000     0          
O        O      0.833333333333     0.273600000000     0.138675000000     0          
O        O      0.878166666667     0.641200000000     0.244175000000     0          
O        O      0.955100000000     0.690000000000     0.009900000000     0          
O        O      0.955133333333     0.588700000000     0.247175000000     0          
O        O      0.788500000000     0.358800000000     0.119175000000     0          
O        O      0.711566666667     0.310000000000     0.134900000000     0          
O        O      0.711533333333     0.411300000000     0.122175000000     0          
O        O      0.878166666667     0.358800000000     0.005825000000     0          
O        O      0.955100000000     0.310000000000     0.240100000000     0          
O        O      0.955133333333     0.411300000000     0.002825000000     0          
O        O      0.788500000000     0.641200000000     0.130825000000     0          
O        O      0.711566666667     0.690000000000     0.115100000000     0          
O        O      0.711533333333     0.588700000000     0.127825000000     0          
O        O      0.893533333333     0.846400000000     0.062500000000     0          
O        O      0.955166666667     0.858800000000     0.005825000000     0          
O        O      0.878233333333     0.810000000000     0.240100000000     0          
O        O      0.878200000000     0.911300000000     0.002825000000     0          
O        O      0.666666666667     0.500000000000     0.000000000000     0          
O        O      0.666666666667     0.562800000000     0.062500000000     0          
O        O      0.666666666667     0.746400000000     0.062500000000     0          
O        O      0.666666666667     0.773600000000     0.236325000000     0          
O        O      0.833333333333     0.645700000000     0.062500000000     0          
O        O      0.773133333333     0.153600000000     0.187500000000     0          
O        O      0.711500000000     0.141200000000     0.130825000000     0          
O        O      0.788433333333     0.190000000000     0.115100000000     0          
O        O      0.788466666667     0.088700000000     0.127825000000     0          
O        O      0.666666666667     0.500000000000     0.125000000000     0          
O        O      0.666666666667     0.437200000000     0.187500000000     0          
O        O      0.666666666667     0.253600000000     0.187500000000     0          
O        O      0.666666666667     0.226400000000     0.111325000000     0          
O        O      0.833333333333     0.354300000000     0.187500000000     0          
O        O      0.893533333333     0.153600000000     0.187500000000     0          
O        O      0.955166666667     0.141200000000     0.244175000000     0          
O        O      0.878233333333     0.190000000000     0.009900000000     0          
O        O      0.878200000000     0.088700000000     0.247175000000     0          
O        O      0.666666666667     0.226400000000     0.013675000000     0          
O        O      0.773133333333     0.846400000000     0.062500000000     0          
O        O      0.711500000000     0.858800000000     0.119175000000     0          
O        O      0.788433333333     0.810000000000     0.134900000000     0          
O        O      0.788466666667     0.911300000000     0.122175000000     0          
O        O      0.666666666667     0.773600000000     0.138675000000     0          
O        O      0.711500000000     0.141200000000     0.244175000000     0          
O        O      0.788433333333     0.190000000000     0.009900000000     0          
O        O      0.788466666667     0.088700000000     0.247175000000     0          
O        O      0.955166666667     0.858800000000     0.119175000000     0          
O        O      0.878233333333     0.810000000000     0.134900000000     0          
O        O      0.878200000000     0.911300000000     0.122175000000     0          
O        O      0.711500000000     0.858800000000     0.005825000000     0          
O        O      0.788433333333     0.810000000000     0.240100000000     0          
O        O      0.788466666667     0.911300000000     0.002825000000     0          
O        O      0.955166666667     0.141200000000     0.130825000000     0          
O        O      0.878233333333     0.190000000000     0.115100000000     0          
O        O      0.878200000000     0.088700000000     0.127825000000     0          
O        O      0.726866666667     0.346400000000     0.312500000000     0          
O        O      0.788500000000     0.358800000000     0.255825000000     0          
O        O      0.711566666667     0.310000000000     0.490100000000     0          
O        O      0.711533333333     0.411300000000     0.252825000000     0          
O        O      0.833333333333     0.000000000000     0.250000000000     0          
O        O      0.833333333333     0.062800000000     0.312500000000     0          
O        O      0.833333333333     0.246400000000     0.312500000000     0          
O        O      0.833333333333     0.273600000000     0.486325000000     0          
O        O      0.666666666667     0.145700000000     0.312500000000     0          
O        O      0.939800000000     0.653600000000     0.437500000000     0          
O        O      0.878166666667     0.641200000000     0.380825000000     0          
O        O      0.955100000000     0.690000000000     0.365100000000     0          
O        O      0.955133333333     0.588700000000     0.377825000000     0          
O        O      0.833333333333     0.000000000000     0.375000000000     0          
O        O      0.833333333333     0.937200000000     0.437500000000     0          
O        O      0.833333333333     0.753600000000     0.437500000000     0          
O        O      0.833333333333     0.726400000000     0.361325000000     0          
O        O      0.666666666667     0.854300000000     0.437500000000     0          
O        O      0.726866666667     0.653600000000     0.437500000000     0          
O        O      0.788500000000     0.641200000000     0.494175000000     0          
O        O      0.711566666667     0.690000000000     0.259900000000     0          
O        O      0.711533333333     0.588700000000     0.497175000000     0          
O        O      0.833333333333     0.726400000000     0.263675000000     0          
O        O      0.939800000000     0.346400000000     0.312500000000     0          
O        O      0.878166666667     0.358800000000     0.369175000000     0          
O        O      0.955100000000     0.310000000000     0.384900000000     0          
O        O      0.955133333333     0.411300000000     0.372175000000     0          
O        O      0.833333333333     0.273600000000     0.388675000000     0          
O        O      0.878166666667     0.641200000000     0.494175000000     0          
O        O      0.955100000000     0.690000000000     0.259900000000     0          
O        O      0.955133333333     0.588700000000     0.497175000000     0          
O        O      0.788500000000     0.358800000000     0.369175000000     0          
O        O      0.711566666667     0.310000000000     0.384900000000     0          
O        O      0.711533333333     0.411300000000     0.372175000000     0          
O        O      0.878166666667     0.358800000000     0.255825000000     0          
O        O      0.955100000000     0.310000000000     0.490100000000     0          
O        O      0.955133333333     0.411300000000     0.252825000000     0          
O        O      0.788500000000     0.641200000000     0.380825000000     0          
O        O      0.711566666667     0.690000000000     0.365100000000     0          
O        O      0.711533333333     0.588700000000     0.377825000000     0          
O        O      0.893533333333     0.846400000000     0.312500000000     0          
O        O      0.955166666667     0.858800000000     0.255825000000     0          
O        O      0.878233333333     0.810000000000     0.490100000000     0          
O        O      0.878200000000     0.911300000000     0.252825000000     0          
O        O      0.666666666667     0.500000000000     0.250000000000     0          
O        O      0.666666666667     0.562800000000     0.312500000000     0          
O        O      0.666666666667     0.746400000000     0.312500000000     0          
O        O      0.666666666667     0.773600000000     0.486325000000     0          
O        O      0.833333333333     0.645700000000     0.312500000000     0          
O        O      0.773133333333     0.153600000000     0.437500000000     0          
O        O      0.711500000000     0.141200000000     0.380825000000     0          
O        O      0.788433333333     0.190000000000     0.365100000000     0          
O        O      0.788466666667     0.088700000000     0.377825000000     0          
O        O      0.666666666667     0.500000000000     0.375000000000     0          
O        O      0.666666666667     0.437200000000     0.437500000000     0          
O        O      0.666666666667     0.253600000000     0.437500000000     0          
O        O      0.666666666667     0.226400000000     0.361325000000     0          
O        O      0.833333333333     0.354300000000     0.437500000000     0          
O        O      0.893533333333     0.153600000000     0.437500000000     0          
O        O      0.955166666667     0.141200000000     0.494175000000     0          
O        O      0.878233333333     0.190000000000     0.259900000000     0          
O        O      0.878200000000     0.088700000000     0.497175000000     0          
O        O      0.666666666667     0.226400000000     0.263675000000     0          
O        O      0.773133333333     0.846400000000     0.312500000000     0          
O        O      0.711500000000     0.858800000000     0.369175000000     0          
O        O      0.788433333333     0.810000000000     0.384900000000     0          
O        O      0.788466666667     0.911300000000     0.372175000000     0          
O        O      0.666666666667     0.773600000000     0.388675000000     0          
O        O      0.711500000000     0.141200000000     0.494175000000     0          
O        O      0.788433333333     0.190000000000     0.259900000000     0          
O        O      0.788466666667     0.088700000000     0.497175000000     0          
O        O      0.955166666667     0.858800000000     0.369175000000     0          
O        O      0.878233333333     0.810000000000     0.384900000000     0          
O        O      0.878200000000     0.911300000000     0.372175000000     0          
O        O      0.711500000000     0.858800000000     0.255825000000     0          
O        O      0.788433333333     0.810000000000     0.490100000000     0          
O        O      0.788466666667     0.911300000000     0.252825000000     0          
O        O      0.955166666667     0.141200000000     0.380825000000     0          
O        O      0.878233333333     0.190000000000     0.365100000000     0          
O        O      0.878200000000     0.088700000000     0.377825000000     0          
O        O      0.726866666667     0.346400000000     0.562500000000     0          
O        O      0.788500000000     0.358800000000     0.505825000000     0          
O        O      0.711566666667     0.310000000000     0.740100000000     0          
O        O      0.711533333333     0.411300000000     0.502825000000     0          
O        O      0.833333333333     0.000000000000     0.500000000000     0          
O        O      0.833333333333     0.062800000000     0.562500000000     0          
O        O      0.833333333333     0.246400000000     0.562500000000     0          
O        O      0.833333333333     0.273600000000     0.736325000000     0          
O        O      0.666666666667     0.145700000000     0.562500000000     0          
O        O      0.939800000000     0.653600000000     0.687500000000     0          
O        O      0.878166666667     0.641200000000     0.630825000000     0          
O        O      0.955100000000     0.690000000000     0.615100000000     0          
O        O      0.955133333333     0.588700000000     0.627825000000     0          
O        O      0.833333333333     0.000000000000     0.625000000000     0          
O        O      0.833333333333     0.937200000000     0.687500000000     0          
O        O      0.833333333333     0.753600000000     0.687500000000     0          
O        O      0.833333333333     0.726400000000     0.611325000000     0          
O        O      0.666666666667     0.854300000000     0.687500000000     0          
O        O      0.726866666667     0.653600000000     0.687500000000     0          
O        O      0.788500000000     0.641200000000     0.744175000000     0          
O        O      0.711566666667     0.690000000000     0.509900000000     0          
O        O      0.711533333333     0.588700000000     0.747175000000     0          
O        O      0.833333333333     0.726400000000     0.513675000000     0          
O        O      0.939800000000     0.346400000000     0.562500000000     0          
O        O      0.878166666667     0.358800000000     0.619175000000     0          
O        O      0.955100000000     0.310000000000     0.634900000000     0          
O        O      0.955133333333     0.411300000000     0.622175000000     0          
O        O      0.833333333333     0.273600000000     0.638675000000     0          
O        O      0.878166666667     0.641200000000     0.744175000000     0          
O        O      0.955100000000     0.690000000000     0.509900000000     0          
O        O      0.955133333333     0.588700000000     0.747175000000     0          
O        O      0.788500000000     0.358800000000     0.619175000000     0          
O        O      0.711566666667     0.310000000000     0.634900000000     0          
O        O      0.711533333333     0.411300000000     0.622175000000     0          
O        O      0.878166666667     0.358800000000     0.505825000000     0          
O        O      0.955100000000     0.310000000000     0.740100000000     0          
O        O      0.955133333333     0.411300000000     0.502825000000     0          
O        O      0.788500000000     0.641200000000     0.630825000000     0          
O        O      0.711566666667     0.690000000000     0.615100000000     0          
O        O      0.711533333333     0.588700000000     0.627825000000     0          
O        O      0.893533333333     0.846400000000     0.562500000000     0          
O        O      0.955166666667     0.858800000000     0.505825000000     0          
O        O      0.878233333333     0.810000000000     0.740100000000     0          
O        O      0.878200000000     0.911300000000     0.502825000000     0          
O        O      0.666666666667     0.500000000000     0.500000000000     0          
O        O      0.666666666667     0.562800000000     0.562500000000     0          
O        O      0.666666666667     0.746400000000     0.562500000000     0          
O        O      0.666666666667     0.773600000000     0.736325000000     0          
O        O      0.833333333333     0.645700000000     0.562500000000     0          
O        O      0.773133333333     0.153600000000     0.687500000000     0          
O        O      0.711500000000     0.141200000000     0.630825000000     0          
O        O      0.788433333333     0.190000000000     0.615100000000     0          
O        O      0.788466666667     0.088700000000     0.627825000000     0          
O        O      0.666666666667     0.500000000000     0.625000000000     0          
O        O      0.666666666667     0.437200000000     0.687500000000     0          
O        O      0.666666666667     0.253600000000     0.687500000000     0          
O        O      0.666666666667     0.226400000000     0.611325000000     0          
O        O      0.833333333333     0.354300000000     0.687500000000     0          
O        O      0.893533333333     0.153600000000     0.687500000000     0          
O        O      0.955166666667     0.141200000000     0.744175000000     0          
O        O      0.878233333333     0.190000000000     0.509900000000     0          
O        O      0.878200000000     0.088700000000     0.747175000000     0          
O        O      0.666666666667     0.226400000000     0.513675000000     0          
O        O      0.773133333333     0.846400000000     0.562500000000     0          
O        O      0.711500000000     0.858800000000     0.619175000000     0          
O        O      0.788433333333     0.810000000000     0.634900000000     0          
O        O      0.788466666667     0.911300000000     0.622175000000     0          
O        O      0.666666666667     0.773600000000     0.638675000000     0          
O        O      0.711500000000     0.141200000000     0.744175000000     0          
O        O      0.788433333333     0.190000000000     0.509900000000     0          
O        O      0.788466666667     0.088700000000     0.747175000000     0          
O        O      0.955166666667     0.858800000000     0.619175000000     0          
O        O      0.878233333333     0.810000000000     0.634900000000     0          
O        O      0.878200000000     0.911300000000     0.622175000000     0          
O        O      0.711500000000     0.858800000000     0.505825000000     0          
O        O      0.788433333333     0.810000000000     0.740100000000     0          
O        O      0.788466666667     0.911300000000     0.502825000000     0          
O        O      0.955166666667     0.141200000000     0.630825000000     0          
O        O      0.878233333333     0.190000000000     0.615100000000     0          
O        O      0.878200000000     0.088700000000     0.627825000000     0          
O        O      0.726866666667     0.346400000000     0.812500000000     0          
O        O      0.788500000000     0.358800000000     0.755825000000     0          
O        O      0.711566666667     0.310000000000     0.990100000000     0          
O        O      0.711533333333     0.411300000000     0.752825000000     0          
O        O      0.833333333333     0.000000000000     0.750000000000     0          
O        O      0.833333333333     0.062800000000     0.812500000000     0          
O        O      0.833333333333     0.246400000000     0.812500000000     0          
O        O      0.833333333333     0.273600000000     0.986325000000     0          
O        O      0.666666666667     0.145700000000     0.812500000000     0          
O        O      0.939800000000     0.653600000000     0.937500000000     0          
O        O      0.878166666667     0.641200000000     0.880825000000     0          
O        O      0.955100000000     0.690000000000     0.865100000000     0          
O        O      0.955133333333     0.588700000000     0.877825000000     0          
O        O      0.833333333333     0.000000000000     0.875000000000     0          
O        O      0.833333333333     0.937200000000     0.937500000000     0          
O        O      0.833333333333     0.753600000000     0.937500000000     0          
O        O      0.833333333333     0.726400000000     0.861325000000     0          
O        O      0.666666666667     0.854300000000     0.937500000000     0          
O        O      0.726866666667     0.653600000000     0.937500000000     0          
O        O      0.788500000000     0.641200000000     0.994175000000     0          
O        O      0.711566666667     0.690000000000     0.759900000000     0          
O        O      0.711533333333     0.588700000000     0.997175000000     0          
O        O      0.833333333333     0.726400000000     0.763675000000     0          
O        O      0.939800000000     0.346400000000     0.812500000000     0          
O        O      0.878166666667     0.358800000000     0.869175000000     0          
O        O      0.955100000000     0.310000000000     0.884900000000     0          
O        O      0.955133333333     0.411300000000     0.872175000000     0          
O        O      0.833333333333     0.273600000000     0.888675000000     0          
O        O      0.878166666667     0.641200000000     0.994175000000     0          
O        O      0.955100000000     0.690000000000     0.759900000000     0          
O        O      0.955133333333     0.588700000000     0.997175000000     0          
O        O      0.788500000000     0.358800000000     0.869175000000     0          
O        O      0.711566666667     0.310000000000     0.884900000000     0          
O        O      0.711533333333     0.411300000000     0.872175000000     0          
O        O      0.878166666667     0.358800000000     0.755825000000     0          
O        O      0.955100000000     0.310000000000     0.990100000000     0          
O        O      0.955133333333     0.411300000000     0.752825000000     0          
O        O      0.788500000000     0.641200000000     0.880825000000     0          
O        O      0.711566666667     0.690000000000     0.865100000000     0          
O        O      0.711533333333     0.588700000000     0.877825000000     0          
O        O      0.893533333333     0.846400000000     0.812500000000     0          
O        O      0.955166666667     0.858800000000     0.755825000000     0          
O        O      0.878233333333     0.810000000000     0.990100000000     0          
O        O      0.878200000000     0.911300000000     0.752825000000     0          
O        O      0.666666666667     0.500000000000     0.750000000000     0          
O        O      0.666666666667     0.562800000000     0.812500000000     0          
O        O      0.666666666667     0.746400000000     0.812500000000     0          
O        O      0.666666666667     0.773600000000     0.986325000000     0          
O        O      0.833333333333     0.645700000000     0.812500000000     0          
O        O      0.773133333333     0.153600000000     0.937500000000     0          
O        O      0.711500000000     0.141200000000     0.880825000000     0          
O        O      0.788433333333     0.190000000000     0.865100000000     0          
O        O      0.788466666667     0.088700000000     0.877825000000     0          
O        O      0.666666666667     0.500000000000     0.875000000000     0          
O        O      0.666666666667     0.437200000000     0.937500000000     0          
O        O      0.666666666667     0.253600000000     0.937500000000     0          
O        O      0.666666666667     0.226400000000     0.861325000000     0          
O        O      0.833333333333     0.354300000000     0.937500000000     0          
O        O      0.893533333333     0.153600000000     0.937500000000     0          
O        O      0.955166666667     0.141200000000     0.994175000000     0          
O        O      0.878233333333     0.190000000000     0.759900000000     0          
O        O      0.878200000000     0.088700000000     0.997175000000     0          
O        O      0.666666666667     0.226400000000     0.763675000000     0          
O        O      0.773133333333     0.846400000000     0.812500000000     0          
O        O      0.711500000000     0.858800000000     0.869175000000     0          
O        O      0.788433333333     0.810000000000     0.884900000000     0          
O        O      0.788466666667     0.911300000000     0.872175000000     0          
O        O      0.666666666667     0.773600000000     0.888675000000     0          
O        O      0.711500000000     0.141200000000     0.994175000000     0          
O        O      0.788433333333     0.190000000000     0.759900000000     0          
O        O      0.788466666667     0.088700000000     0.997175000000     0          
O        O      0.955166666667     0.858800000000     0.869175000000     0          
O        O      0.878233333333     0.810000000000     0.884900000000     0          
O        O      0.878200000000     0.911300000000     0.872175000000     0          
O        O      0.711500000000     0.858800000000     0.755825000000     0          
O        O      0.788433333333     0.810000000000     0.990100000000     0          
O        O      0.788466666667     0.911300000000     0.752825000000     0          
O        O      0.955166666667     0.141200000000     0.880825000000     0          
O        O      0.878233333333     0.190000000000     0.865100000000     0          
O        O      0.878200000000     0.088700000000     0.877825000000     0          


