data_zeolite

_audit_creation_method RASPA-1.0
_audit_creation_date 2021-6-6
_audit_author_name ''

_cell_length_a    12.916
_cell_length_b    12.916
_cell_length_c    26.543
_cell_angle_alpha 90
_cell_angle_beta  90
_cell_angle_gamma 120
_cell_volume      34512.7

_symmetry_cell_setting          trigonal
_symmetry_space_group_name_Hall 'P 1'
_symmetry_space_group_name_H-M  'P 1'
_symmetry_Int_Tables_number     1

_symmetry_equiv_pos_as_xyz 'x,y,z'

loop_
_atom_site_label
_atom_site_type_symbol
_atom_site_fract_x
_atom_site_fract_y
_atom_site_fract_z
_atom_site_charge
T        Si     0.138666666667     0.111133333333     0.099700000000     0          
T        Si     0.138666666667     0.111100000000     0.800300000000     0          
T        Si     0.138400000000     0.110466666667     0.400100000000     0          
T        Si     0.083333333333     0.083333333333     0.000000000000     0          
T        Si     0.083600000000     0.083600000000     0.700100000000     0          
T        Si     0.083400000000     0.083400000000     0.500000000000     0          
T        Si     0.222200000000     0.027533333333     0.099700000000     0          
T        Si     0.222233333333     0.027566666667     0.800300000000     0          
T        Si     0.222866666667     0.027933333333     0.400100000000     0          
T        Si     0.250000000000     0.000000000000     0.000000000000     0          
T        Si     0.249733333333     0.000000000000     0.700100000000     0          
T        Si     0.249933333333     0.000000000000     0.500000000000     0          
T        Si     0.305800000000     0.194666666667     0.099700000000     0          
T        Si     0.305766666667     0.194666666667     0.800300000000     0          
T        Si     0.305400000000     0.194933333333     0.400100000000     0          
T        Si     0.000000000000     0.250000000000     0.000000000000     0          
T        Si     0.000000000000     0.249733333333     0.700100000000     0          
T        Si     0.000000000000     0.249933333333     0.500000000000     0          
T        Si     0.111133333333     0.138666666667     0.900300000000     0          
T        Si     0.111100000000     0.138666666667     0.199700000000     0          
T        Si     0.110466666667     0.138400000000     0.599900000000     0          
T        Si     0.083600000000     0.083600000000     0.299900000000     0          
T        Si     0.194666666667     0.305800000000     0.900300000000     0          
T        Si     0.194666666667     0.305766666667     0.199700000000     0          
T        Si     0.194933333333     0.305400000000     0.599900000000     0          
T        Si     0.249733333333     0.000000000000     0.299900000000     0          
T        Si     0.027533333333     0.222200000000     0.900300000000     0          
T        Si     0.027566666667     0.222233333333     0.199700000000     0          
T        Si     0.027933333333     0.222866666667     0.599900000000     0          
T        Si     0.000000000000     0.249733333333     0.299900000000     0          
T        Si     0.194666666667     0.222200000000     0.900300000000     0          
T        Si     0.194666666667     0.222233333333     0.199700000000     0          
T        Si     0.194933333333     0.222866666667     0.599900000000     0          
T        Si     0.250000000000     0.250000000000     0.000000000000     0          
T        Si     0.249733333333     0.249733333333     0.299900000000     0          
T        Si     0.249933333333     0.249933333333     0.500000000000     0          
T        Si     0.111133333333     0.305800000000     0.900300000000     0          
T        Si     0.111100000000     0.305766666667     0.199700000000     0          
T        Si     0.110466666667     0.305400000000     0.599900000000     0          
T        Si     0.083333333333     0.000000000000     0.000000000000     0          
T        Si     0.083600000000     0.000000000000     0.299900000000     0          
T        Si     0.083400000000     0.000000000000     0.500000000000     0          
T        Si     0.027533333333     0.138666666667     0.900300000000     0          
T        Si     0.027566666667     0.138666666667     0.199700000000     0          
T        Si     0.027933333333     0.138400000000     0.599900000000     0          
T        Si     0.000000000000     0.083333333333     0.000000000000     0          
T        Si     0.000000000000     0.083600000000     0.299900000000     0          
T        Si     0.000000000000     0.083400000000     0.500000000000     0          
T        Si     0.222200000000     0.194666666667     0.099700000000     0          
T        Si     0.222233333333     0.194666666667     0.800300000000     0          
T        Si     0.222866666667     0.194933333333     0.400100000000     0          
T        Si     0.249733333333     0.249733333333     0.700100000000     0          
T        Si     0.138666666667     0.027533333333     0.099700000000     0          
T        Si     0.138666666667     0.027566666667     0.800300000000     0          
T        Si     0.138400000000     0.027933333333     0.400100000000     0          
T        Si     0.083600000000     0.000000000000     0.700100000000     0          
T        Si     0.305800000000     0.111133333333     0.099700000000     0          
T        Si     0.305766666667     0.111100000000     0.800300000000     0          
T        Si     0.305400000000     0.110466666667     0.400100000000     0          
T        Si     0.000000000000     0.083600000000     0.700100000000     0          
T        Si     0.138666666667     0.444466666667     0.099700000000     0          
T        Si     0.138666666667     0.444433333333     0.800300000000     0          
T        Si     0.138400000000     0.443800000000     0.400100000000     0          
T        Si     0.083333333333     0.416666666667     0.000000000000     0          
T        Si     0.083600000000     0.416933333333     0.700100000000     0          
T        Si     0.083400000000     0.416733333333     0.500000000000     0          
T        Si     0.222200000000     0.360866666667     0.099700000000     0          
T        Si     0.222233333333     0.360900000000     0.800300000000     0          
T        Si     0.222866666667     0.361266666667     0.400100000000     0          
T        Si     0.250000000000     0.333333333333     0.000000000000     0          
T        Si     0.249733333333     0.333333333333     0.700100000000     0          
T        Si     0.249933333333     0.333333333333     0.500000000000     0          
T        Si     0.305800000000     0.528000000000     0.099700000000     0          
T        Si     0.305766666667     0.528000000000     0.800300000000     0          
T        Si     0.305400000000     0.528266666667     0.400100000000     0          
T        Si     0.000000000000     0.583333333333     0.000000000000     0          
T        Si     0.000000000000     0.583066666667     0.700100000000     0          
T        Si     0.000000000000     0.583266666667     0.500000000000     0          
T        Si     0.111133333333     0.472000000000     0.900300000000     0          
T        Si     0.111100000000     0.472000000000     0.199700000000     0          
T        Si     0.110466666667     0.471733333333     0.599900000000     0          
T        Si     0.083600000000     0.416933333333     0.299900000000     0          
T        Si     0.194666666667     0.639133333333     0.900300000000     0          
T        Si     0.194666666667     0.639100000000     0.199700000000     0          
T        Si     0.194933333333     0.638733333333     0.599900000000     0          
T        Si     0.249733333333     0.333333333333     0.299900000000     0          
T        Si     0.027533333333     0.555533333333     0.900300000000     0          
T        Si     0.027566666667     0.555566666667     0.199700000000     0          
T        Si     0.027933333333     0.556200000000     0.599900000000     0          
T        Si     0.000000000000     0.583066666667     0.299900000000     0          
T        Si     0.194666666667     0.555533333333     0.900300000000     0          
T        Si     0.194666666667     0.555566666667     0.199700000000     0          
T        Si     0.194933333333     0.556200000000     0.599900000000     0          
T        Si     0.250000000000     0.583333333333     0.000000000000     0          
T        Si     0.249733333333     0.583066666667     0.299900000000     0          
T        Si     0.249933333333     0.583266666667     0.500000000000     0          
T        Si     0.111133333333     0.639133333333     0.900300000000     0          
T        Si     0.111100000000     0.639100000000     0.199700000000     0          
T        Si     0.110466666667     0.638733333333     0.599900000000     0          
T        Si     0.083333333333     0.333333333333     0.000000000000     0          
T        Si     0.083600000000     0.333333333333     0.299900000000     0          
T        Si     0.083400000000     0.333333333333     0.500000000000     0          
T        Si     0.027533333333     0.472000000000     0.900300000000     0          
T        Si     0.027566666667     0.472000000000     0.199700000000     0          
T        Si     0.027933333333     0.471733333333     0.599900000000     0          
T        Si     0.000000000000     0.416666666667     0.000000000000     0          
T        Si     0.000000000000     0.416933333333     0.299900000000     0          
T        Si     0.000000000000     0.416733333333     0.500000000000     0          
T        Si     0.222200000000     0.528000000000     0.099700000000     0          
T        Si     0.222233333333     0.528000000000     0.800300000000     0          
T        Si     0.222866666667     0.528266666667     0.400100000000     0          
T        Si     0.249733333333     0.583066666667     0.700100000000     0          
T        Si     0.138666666667     0.360866666667     0.099700000000     0          
T        Si     0.138666666667     0.360900000000     0.800300000000     0          
T        Si     0.138400000000     0.361266666667     0.400100000000     0          
T        Si     0.083600000000     0.333333333333     0.700100000000     0          
T        Si     0.305800000000     0.444466666667     0.099700000000     0          
T        Si     0.305766666667     0.444433333333     0.800300000000     0          
T        Si     0.305400000000     0.443800000000     0.400100000000     0          
T        Si     0.000000000000     0.416933333333     0.700100000000     0          
T        Si     0.138666666667     0.777800000000     0.099700000000     0          
T        Si     0.138666666667     0.777766666667     0.800300000000     0          
T        Si     0.138400000000     0.777133333333     0.400100000000     0          
T        Si     0.083333333333     0.750000000000     0.000000000000     0          
T        Si     0.083600000000     0.750266666667     0.700100000000     0          
T        Si     0.083400000000     0.750066666667     0.500000000000     0          
T        Si     0.222200000000     0.694200000000     0.099700000000     0          
T        Si     0.222233333333     0.694233333333     0.800300000000     0          
T        Si     0.222866666667     0.694600000000     0.400100000000     0          
T        Si     0.250000000000     0.666666666667     0.000000000000     0          
T        Si     0.249733333333     0.666666666667     0.700100000000     0          
T        Si     0.249933333333     0.666666666667     0.500000000000     0          
T        Si     0.305800000000     0.861333333333     0.099700000000     0          
T        Si     0.305766666667     0.861333333333     0.800300000000     0          
T        Si     0.305400000000     0.861600000000     0.400100000000     0          
T        Si     0.000000000000     0.916666666667     0.000000000000     0          
T        Si     0.000000000000     0.916400000000     0.700100000000     0          
T        Si     0.000000000000     0.916600000000     0.500000000000     0          
T        Si     0.111133333333     0.805333333333     0.900300000000     0          
T        Si     0.111100000000     0.805333333333     0.199700000000     0          
T        Si     0.110466666667     0.805066666667     0.599900000000     0          
T        Si     0.083600000000     0.750266666667     0.299900000000     0          
T        Si     0.194666666667     0.972466666667     0.900300000000     0          
T        Si     0.194666666667     0.972433333333     0.199700000000     0          
T        Si     0.194933333333     0.972066666667     0.599900000000     0          
T        Si     0.249733333333     0.666666666667     0.299900000000     0          
T        Si     0.027533333333     0.888866666667     0.900300000000     0          
T        Si     0.027566666667     0.888900000000     0.199700000000     0          
T        Si     0.027933333333     0.889533333333     0.599900000000     0          
T        Si     0.000000000000     0.916400000000     0.299900000000     0          
T        Si     0.194666666667     0.888866666667     0.900300000000     0          
T        Si     0.194666666667     0.888900000000     0.199700000000     0          
T        Si     0.194933333333     0.889533333333     0.599900000000     0          
T        Si     0.250000000000     0.916666666667     0.000000000000     0          
T        Si     0.249733333333     0.916400000000     0.299900000000     0          
T        Si     0.249933333333     0.916600000000     0.500000000000     0          
T        Si     0.111133333333     0.972466666667     0.900300000000     0          
T        Si     0.111100000000     0.972433333333     0.199700000000     0          
T        Si     0.110466666667     0.972066666667     0.599900000000     0          
T        Si     0.083333333333     0.666666666667     0.000000000000     0          
T        Si     0.083600000000     0.666666666667     0.299900000000     0          
T        Si     0.083400000000     0.666666666667     0.500000000000     0          
T        Si     0.027533333333     0.805333333333     0.900300000000     0          
T        Si     0.027566666667     0.805333333333     0.199700000000     0          
T        Si     0.027933333333     0.805066666667     0.599900000000     0          
T        Si     0.000000000000     0.750000000000     0.000000000000     0          
T        Si     0.000000000000     0.750266666667     0.299900000000     0          
T        Si     0.000000000000     0.750066666667     0.500000000000     0          
T        Si     0.222200000000     0.861333333333     0.099700000000     0          
T        Si     0.222233333333     0.861333333333     0.800300000000     0          
T        Si     0.222866666667     0.861600000000     0.400100000000     0          
T        Si     0.249733333333     0.916400000000     0.700100000000     0          
T        Si     0.138666666667     0.694200000000     0.099700000000     0          
T        Si     0.138666666667     0.694233333333     0.800300000000     0          
T        Si     0.138400000000     0.694600000000     0.400100000000     0          
T        Si     0.083600000000     0.666666666667     0.700100000000     0          
T        Si     0.305800000000     0.777800000000     0.099700000000     0          
T        Si     0.305766666667     0.777766666667     0.800300000000     0          
T        Si     0.305400000000     0.777133333333     0.400100000000     0          
T        Si     0.000000000000     0.750266666667     0.700100000000     0          
T        Si     0.472000000000     0.111133333333     0.099700000000     0          
T        Si     0.472000000000     0.111100000000     0.800300000000     0          
T        Si     0.471733333333     0.110466666667     0.400100000000     0          
T        Si     0.416666666667     0.083333333333     0.000000000000     0          
T        Si     0.416933333333     0.083600000000     0.700100000000     0          
T        Si     0.416733333333     0.083400000000     0.500000000000     0          
T        Si     0.555533333333     0.027533333333     0.099700000000     0          
T        Si     0.555566666667     0.027566666667     0.800300000000     0          
T        Si     0.556200000000     0.027933333333     0.400100000000     0          
T        Si     0.583333333333     0.000000000000     0.000000000000     0          
T        Si     0.583066666667     0.000000000000     0.700100000000     0          
T        Si     0.583266666667     0.000000000000     0.500000000000     0          
T        Si     0.639133333333     0.194666666667     0.099700000000     0          
T        Si     0.639100000000     0.194666666667     0.800300000000     0          
T        Si     0.638733333333     0.194933333333     0.400100000000     0          
T        Si     0.333333333333     0.250000000000     0.000000000000     0          
T        Si     0.333333333333     0.249733333333     0.700100000000     0          
T        Si     0.333333333333     0.249933333333     0.500000000000     0          
T        Si     0.444466666667     0.138666666667     0.900300000000     0          
T        Si     0.444433333333     0.138666666667     0.199700000000     0          
T        Si     0.443800000000     0.138400000000     0.599900000000     0          
T        Si     0.416933333333     0.083600000000     0.299900000000     0          
T        Si     0.528000000000     0.305800000000     0.900300000000     0          
T        Si     0.528000000000     0.305766666667     0.199700000000     0          
T        Si     0.528266666667     0.305400000000     0.599900000000     0          
T        Si     0.583066666667     0.000000000000     0.299900000000     0          
T        Si     0.360866666667     0.222200000000     0.900300000000     0          
T        Si     0.360900000000     0.222233333333     0.199700000000     0          
T        Si     0.361266666667     0.222866666667     0.599900000000     0          
T        Si     0.333333333333     0.249733333333     0.299900000000     0          
T        Si     0.528000000000     0.222200000000     0.900300000000     0          
T        Si     0.528000000000     0.222233333333     0.199700000000     0          
T        Si     0.528266666667     0.222866666667     0.599900000000     0          
T        Si     0.583333333333     0.250000000000     0.000000000000     0          
T        Si     0.583066666667     0.249733333333     0.299900000000     0          
T        Si     0.583266666667     0.249933333333     0.500000000000     0          
T        Si     0.444466666667     0.305800000000     0.900300000000     0          
T        Si     0.444433333333     0.305766666667     0.199700000000     0          
T        Si     0.443800000000     0.305400000000     0.599900000000     0          
T        Si     0.416666666667     0.000000000000     0.000000000000     0          
T        Si     0.416933333333     0.000000000000     0.299900000000     0          
T        Si     0.416733333333     0.000000000000     0.500000000000     0          
T        Si     0.360866666667     0.138666666667     0.900300000000     0          
T        Si     0.360900000000     0.138666666667     0.199700000000     0          
T        Si     0.361266666667     0.138400000000     0.599900000000     0          
T        Si     0.333333333333     0.083333333333     0.000000000000     0          
T        Si     0.333333333333     0.083600000000     0.299900000000     0          
T        Si     0.333333333333     0.083400000000     0.500000000000     0          
T        Si     0.555533333333     0.194666666667     0.099700000000     0          
T        Si     0.555566666667     0.194666666667     0.800300000000     0          
T        Si     0.556200000000     0.194933333333     0.400100000000     0          
T        Si     0.583066666667     0.249733333333     0.700100000000     0          
T        Si     0.472000000000     0.027533333333     0.099700000000     0          
T        Si     0.472000000000     0.027566666667     0.800300000000     0          
T        Si     0.471733333333     0.027933333333     0.400100000000     0          
T        Si     0.416933333333     0.000000000000     0.700100000000     0          
T        Si     0.639133333333     0.111133333333     0.099700000000     0          
T        Si     0.639100000000     0.111100000000     0.800300000000     0          
T        Si     0.638733333333     0.110466666667     0.400100000000     0          
T        Si     0.333333333333     0.083600000000     0.700100000000     0          
T        Si     0.472000000000     0.444466666667     0.099700000000     0          
T        Si     0.472000000000     0.444433333333     0.800300000000     0          
T        Si     0.471733333333     0.443800000000     0.400100000000     0          
T        Si     0.416666666667     0.416666666667     0.000000000000     0          
T        Si     0.416933333333     0.416933333333     0.700100000000     0          
T        Si     0.416733333333     0.416733333333     0.500000000000     0          
T        Si     0.555533333333     0.360866666667     0.099700000000     0          
T        Si     0.555566666667     0.360900000000     0.800300000000     0          
T        Si     0.556200000000     0.361266666667     0.400100000000     0          
T        Si     0.583333333333     0.333333333333     0.000000000000     0          
T        Si     0.583066666667     0.333333333333     0.700100000000     0          
T        Si     0.583266666667     0.333333333333     0.500000000000     0          
T        Si     0.639133333333     0.528000000000     0.099700000000     0          
T        Si     0.639100000000     0.528000000000     0.800300000000     0          
T        Si     0.638733333333     0.528266666667     0.400100000000     0          
T        Si     0.333333333333     0.583333333333     0.000000000000     0          
T        Si     0.333333333333     0.583066666667     0.700100000000     0          
T        Si     0.333333333333     0.583266666667     0.500000000000     0          
T        Si     0.444466666667     0.472000000000     0.900300000000     0          
T        Si     0.444433333333     0.472000000000     0.199700000000     0          
T        Si     0.443800000000     0.471733333333     0.599900000000     0          
T        Si     0.416933333333     0.416933333333     0.299900000000     0          
T        Si     0.528000000000     0.639133333333     0.900300000000     0          
T        Si     0.528000000000     0.639100000000     0.199700000000     0          
T        Si     0.528266666667     0.638733333333     0.599900000000     0          
T        Si     0.583066666667     0.333333333333     0.299900000000     0          
T        Si     0.360866666667     0.555533333333     0.900300000000     0          
T        Si     0.360900000000     0.555566666667     0.199700000000     0          
T        Si     0.361266666667     0.556200000000     0.599900000000     0          
T        Si     0.333333333333     0.583066666667     0.299900000000     0          
T        Si     0.528000000000     0.555533333333     0.900300000000     0          
T        Si     0.528000000000     0.555566666667     0.199700000000     0          
T        Si     0.528266666667     0.556200000000     0.599900000000     0          
T        Si     0.583333333333     0.583333333333     0.000000000000     0          
T        Si     0.583066666667     0.583066666667     0.299900000000     0          
T        Si     0.583266666667     0.583266666667     0.500000000000     0          
T        Si     0.444466666667     0.639133333333     0.900300000000     0          
T        Si     0.444433333333     0.639100000000     0.199700000000     0          
T        Si     0.443800000000     0.638733333333     0.599900000000     0          
T        Si     0.416666666667     0.333333333333     0.000000000000     0          
T        Si     0.416933333333     0.333333333333     0.299900000000     0          
T        Si     0.416733333333     0.333333333333     0.500000000000     0          
T        Si     0.360866666667     0.472000000000     0.900300000000     0          
T        Si     0.360900000000     0.472000000000     0.199700000000     0          
T        Si     0.361266666667     0.471733333333     0.599900000000     0          
T        Si     0.333333333333     0.416666666667     0.000000000000     0          
T        Si     0.333333333333     0.416933333333     0.299900000000     0          
T        Si     0.333333333333     0.416733333333     0.500000000000     0          
T        Si     0.555533333333     0.528000000000     0.099700000000     0          
T        Si     0.555566666667     0.528000000000     0.800300000000     0          
T        Si     0.556200000000     0.528266666667     0.400100000000     0          
T        Si     0.583066666667     0.583066666667     0.700100000000     0          
T        Si     0.472000000000     0.360866666667     0.099700000000     0          
T        Si     0.472000000000     0.360900000000     0.800300000000     0          
T        Si     0.471733333333     0.361266666667     0.400100000000     0          
T        Si     0.416933333333     0.333333333333     0.700100000000     0          
T        Si     0.639133333333     0.444466666667     0.099700000000     0          
T        Si     0.639100000000     0.444433333333     0.800300000000     0          
T        Si     0.638733333333     0.443800000000     0.400100000000     0          
T        Si     0.333333333333     0.416933333333     0.700100000000     0          
T        Si     0.472000000000     0.777800000000     0.099700000000     0          
T        Si     0.472000000000     0.777766666667     0.800300000000     0          
T        Si     0.471733333333     0.777133333333     0.400100000000     0          
T        Si     0.416666666667     0.750000000000     0.000000000000     0          
T        Si     0.416933333333     0.750266666667     0.700100000000     0          
T        Si     0.416733333333     0.750066666667     0.500000000000     0          
T        Si     0.555533333333     0.694200000000     0.099700000000     0          
T        Si     0.555566666667     0.694233333333     0.800300000000     0          
T        Si     0.556200000000     0.694600000000     0.400100000000     0          
T        Si     0.583333333333     0.666666666667     0.000000000000     0          
T        Si     0.583066666667     0.666666666667     0.700100000000     0          
T        Si     0.583266666667     0.666666666667     0.500000000000     0          
T        Si     0.639133333333     0.861333333333     0.099700000000     0          
T        Si     0.639100000000     0.861333333333     0.800300000000     0          
T        Si     0.638733333333     0.861600000000     0.400100000000     0          
T        Si     0.333333333333     0.916666666667     0.000000000000     0          
T        Si     0.333333333333     0.916400000000     0.700100000000     0          
T        Si     0.333333333333     0.916600000000     0.500000000000     0          
T        Si     0.444466666667     0.805333333333     0.900300000000     0          
T        Si     0.444433333333     0.805333333333     0.199700000000     0          
T        Si     0.443800000000     0.805066666667     0.599900000000     0          
T        Si     0.416933333333     0.750266666667     0.299900000000     0          
T        Si     0.528000000000     0.972466666667     0.900300000000     0          
T        Si     0.528000000000     0.972433333333     0.199700000000     0          
T        Si     0.528266666667     0.972066666667     0.599900000000     0          
T        Si     0.583066666667     0.666666666667     0.299900000000     0          
T        Si     0.360866666667     0.888866666667     0.900300000000     0          
T        Si     0.360900000000     0.888900000000     0.199700000000     0          
T        Si     0.361266666667     0.889533333333     0.599900000000     0          
T        Si     0.333333333333     0.916400000000     0.299900000000     0          
T        Si     0.528000000000     0.888866666667     0.900300000000     0          
T        Si     0.528000000000     0.888900000000     0.199700000000     0          
T        Si     0.528266666667     0.889533333333     0.599900000000     0          
T        Si     0.583333333333     0.916666666667     0.000000000000     0          
T        Si     0.583066666667     0.916400000000     0.299900000000     0          
T        Si     0.583266666667     0.916600000000     0.500000000000     0          
T        Si     0.444466666667     0.972466666667     0.900300000000     0          
T        Si     0.444433333333     0.972433333333     0.199700000000     0          
T        Si     0.443800000000     0.972066666667     0.599900000000     0          
T        Si     0.416666666667     0.666666666667     0.000000000000     0          
T        Si     0.416933333333     0.666666666667     0.299900000000     0          
T        Si     0.416733333333     0.666666666667     0.500000000000     0          
T        Si     0.360866666667     0.805333333333     0.900300000000     0          
T        Si     0.360900000000     0.805333333333     0.199700000000     0          
T        Si     0.361266666667     0.805066666667     0.599900000000     0          
T        Si     0.333333333333     0.750000000000     0.000000000000     0          
T        Si     0.333333333333     0.750266666667     0.299900000000     0          
T        Si     0.333333333333     0.750066666667     0.500000000000     0          
T        Si     0.555533333333     0.861333333333     0.099700000000     0          
T        Si     0.555566666667     0.861333333333     0.800300000000     0          
T        Si     0.556200000000     0.861600000000     0.400100000000     0          
T        Si     0.583066666667     0.916400000000     0.700100000000     0          
T        Si     0.472000000000     0.694200000000     0.099700000000     0          
T        Si     0.472000000000     0.694233333333     0.800300000000     0          
T        Si     0.471733333333     0.694600000000     0.400100000000     0          
T        Si     0.416933333333     0.666666666667     0.700100000000     0          
T        Si     0.639133333333     0.777800000000     0.099700000000     0          
T        Si     0.639100000000     0.777766666667     0.800300000000     0          
T        Si     0.638733333333     0.777133333333     0.400100000000     0          
T        Si     0.333333333333     0.750266666667     0.700100000000     0          
T        Si     0.805333333333     0.111133333333     0.099700000000     0          
T        Si     0.805333333333     0.111100000000     0.800300000000     0          
T        Si     0.805066666667     0.110466666667     0.400100000000     0          
T        Si     0.750000000000     0.083333333333     0.000000000000     0          
T        Si     0.750266666667     0.083600000000     0.700100000000     0          
T        Si     0.750066666667     0.083400000000     0.500000000000     0          
T        Si     0.888866666667     0.027533333333     0.099700000000     0          
T        Si     0.888900000000     0.027566666667     0.800300000000     0          
T        Si     0.889533333333     0.027933333333     0.400100000000     0          
T        Si     0.916666666667     0.000000000000     0.000000000000     0          
T        Si     0.916400000000     0.000000000000     0.700100000000     0          
T        Si     0.916600000000     0.000000000000     0.500000000000     0          
T        Si     0.972466666667     0.194666666667     0.099700000000     0          
T        Si     0.972433333333     0.194666666667     0.800300000000     0          
T        Si     0.972066666667     0.194933333333     0.400100000000     0          
T        Si     0.666666666667     0.250000000000     0.000000000000     0          
T        Si     0.666666666667     0.249733333333     0.700100000000     0          
T        Si     0.666666666667     0.249933333333     0.500000000000     0          
T        Si     0.777800000000     0.138666666667     0.900300000000     0          
T        Si     0.777766666667     0.138666666667     0.199700000000     0          
T        Si     0.777133333333     0.138400000000     0.599900000000     0          
T        Si     0.750266666667     0.083600000000     0.299900000000     0          
T        Si     0.861333333333     0.305800000000     0.900300000000     0          
T        Si     0.861333333333     0.305766666667     0.199700000000     0          
T        Si     0.861600000000     0.305400000000     0.599900000000     0          
T        Si     0.916400000000     0.000000000000     0.299900000000     0          
T        Si     0.694200000000     0.222200000000     0.900300000000     0          
T        Si     0.694233333333     0.222233333333     0.199700000000     0          
T        Si     0.694600000000     0.222866666667     0.599900000000     0          
T        Si     0.666666666667     0.249733333333     0.299900000000     0          
T        Si     0.861333333333     0.222200000000     0.900300000000     0          
T        Si     0.861333333333     0.222233333333     0.199700000000     0          
T        Si     0.861600000000     0.222866666667     0.599900000000     0          
T        Si     0.916666666667     0.250000000000     0.000000000000     0          
T        Si     0.916400000000     0.249733333333     0.299900000000     0          
T        Si     0.916600000000     0.249933333333     0.500000000000     0          
T        Si     0.777800000000     0.305800000000     0.900300000000     0          
T        Si     0.777766666667     0.305766666667     0.199700000000     0          
T        Si     0.777133333333     0.305400000000     0.599900000000     0          
T        Si     0.750000000000     0.000000000000     0.000000000000     0          
T        Si     0.750266666667     0.000000000000     0.299900000000     0          
T        Si     0.750066666667     0.000000000000     0.500000000000     0          
T        Si     0.694200000000     0.138666666667     0.900300000000     0          
T        Si     0.694233333333     0.138666666667     0.199700000000     0          
T        Si     0.694600000000     0.138400000000     0.599900000000     0          
T        Si     0.666666666667     0.083333333333     0.000000000000     0          
T        Si     0.666666666667     0.083600000000     0.299900000000     0          
T        Si     0.666666666667     0.083400000000     0.500000000000     0          
T        Si     0.888866666667     0.194666666667     0.099700000000     0          
T        Si     0.888900000000     0.194666666667     0.800300000000     0          
T        Si     0.889533333333     0.194933333333     0.400100000000     0          
T        Si     0.916400000000     0.249733333333     0.700100000000     0          
T        Si     0.805333333333     0.027533333333     0.099700000000     0          
T        Si     0.805333333333     0.027566666667     0.800300000000     0          
T        Si     0.805066666667     0.027933333333     0.400100000000     0          
T        Si     0.750266666667     0.000000000000     0.700100000000     0          
T        Si     0.972466666667     0.111133333333     0.099700000000     0          
T        Si     0.972433333333     0.111100000000     0.800300000000     0          
T        Si     0.972066666667     0.110466666667     0.400100000000     0          
T        Si     0.666666666667     0.083600000000     0.700100000000     0          
T        Si     0.805333333333     0.444466666667     0.099700000000     0          
T        Si     0.805333333333     0.444433333333     0.800300000000     0          
T        Si     0.805066666667     0.443800000000     0.400100000000     0          
T        Si     0.750000000000     0.416666666667     0.000000000000     0          
T        Si     0.750266666667     0.416933333333     0.700100000000     0          
T        Si     0.750066666667     0.416733333333     0.500000000000     0          
T        Si     0.888866666667     0.360866666667     0.099700000000     0          
T        Si     0.888900000000     0.360900000000     0.800300000000     0          
T        Si     0.889533333333     0.361266666667     0.400100000000     0          
T        Si     0.916666666667     0.333333333333     0.000000000000     0          
T        Si     0.916400000000     0.333333333333     0.700100000000     0          
T        Si     0.916600000000     0.333333333333     0.500000000000     0          
T        Si     0.972466666667     0.528000000000     0.099700000000     0          
T        Si     0.972433333333     0.528000000000     0.800300000000     0          
T        Si     0.972066666667     0.528266666667     0.400100000000     0          
T        Si     0.666666666667     0.583333333333     0.000000000000     0          
T        Si     0.666666666667     0.583066666667     0.700100000000     0          
T        Si     0.666666666667     0.583266666667     0.500000000000     0          
T        Si     0.777800000000     0.472000000000     0.900300000000     0          
T        Si     0.777766666667     0.472000000000     0.199700000000     0          
T        Si     0.777133333333     0.471733333333     0.599900000000     0          
T        Si     0.750266666667     0.416933333333     0.299900000000     0          
T        Si     0.861333333333     0.639133333333     0.900300000000     0          
T        Si     0.861333333333     0.639100000000     0.199700000000     0          
T        Si     0.861600000000     0.638733333333     0.599900000000     0          
T        Si     0.916400000000     0.333333333333     0.299900000000     0          
T        Si     0.694200000000     0.555533333333     0.900300000000     0          
T        Si     0.694233333333     0.555566666667     0.199700000000     0          
T        Si     0.694600000000     0.556200000000     0.599900000000     0          
T        Si     0.666666666667     0.583066666667     0.299900000000     0          
T        Si     0.861333333333     0.555533333333     0.900300000000     0          
T        Si     0.861333333333     0.555566666667     0.199700000000     0          
T        Si     0.861600000000     0.556200000000     0.599900000000     0          
T        Si     0.916666666667     0.583333333333     0.000000000000     0          
T        Si     0.916400000000     0.583066666667     0.299900000000     0          
T        Si     0.916600000000     0.583266666667     0.500000000000     0          
T        Si     0.777800000000     0.639133333333     0.900300000000     0          
T        Si     0.777766666667     0.639100000000     0.199700000000     0          
T        Si     0.777133333333     0.638733333333     0.599900000000     0          
T        Si     0.750000000000     0.333333333333     0.000000000000     0          
T        Si     0.750266666667     0.333333333333     0.299900000000     0          
T        Si     0.750066666667     0.333333333333     0.500000000000     0          
T        Si     0.694200000000     0.472000000000     0.900300000000     0          
T        Si     0.694233333333     0.472000000000     0.199700000000     0          
T        Si     0.694600000000     0.471733333333     0.599900000000     0          
T        Si     0.666666666667     0.416666666667     0.000000000000     0          
T        Si     0.666666666667     0.416933333333     0.299900000000     0          
T        Si     0.666666666667     0.416733333333     0.500000000000     0          
T        Si     0.888866666667     0.528000000000     0.099700000000     0          
T        Si     0.888900000000     0.528000000000     0.800300000000     0          
T        Si     0.889533333333     0.528266666667     0.400100000000     0          
T        Si     0.916400000000     0.583066666667     0.700100000000     0          
T        Si     0.805333333333     0.360866666667     0.099700000000     0          
T        Si     0.805333333333     0.360900000000     0.800300000000     0          
T        Si     0.805066666667     0.361266666667     0.400100000000     0          
T        Si     0.750266666667     0.333333333333     0.700100000000     0          
T        Si     0.972466666667     0.444466666667     0.099700000000     0          
T        Si     0.972433333333     0.444433333333     0.800300000000     0          
T        Si     0.972066666667     0.443800000000     0.400100000000     0          
T        Si     0.666666666667     0.416933333333     0.700100000000     0          
T        Si     0.805333333333     0.777800000000     0.099700000000     0          
T        Si     0.805333333333     0.777766666667     0.800300000000     0          
T        Si     0.805066666667     0.777133333333     0.400100000000     0          
T        Si     0.750000000000     0.750000000000     0.000000000000     0          
T        Si     0.750266666667     0.750266666667     0.700100000000     0          
T        Si     0.750066666667     0.750066666667     0.500000000000     0          
T        Si     0.888866666667     0.694200000000     0.099700000000     0          
T        Si     0.888900000000     0.694233333333     0.800300000000     0          
T        Si     0.889533333333     0.694600000000     0.400100000000     0          
T        Si     0.916666666667     0.666666666667     0.000000000000     0          
T        Si     0.916400000000     0.666666666667     0.700100000000     0          
T        Si     0.916600000000     0.666666666667     0.500000000000     0          
T        Si     0.972466666667     0.861333333333     0.099700000000     0          
T        Si     0.972433333333     0.861333333333     0.800300000000     0          
T        Si     0.972066666667     0.861600000000     0.400100000000     0          
T        Si     0.666666666667     0.916666666667     0.000000000000     0          
T        Si     0.666666666667     0.916400000000     0.700100000000     0          
T        Si     0.666666666667     0.916600000000     0.500000000000     0          
T        Si     0.777800000000     0.805333333333     0.900300000000     0          
T        Si     0.777766666667     0.805333333333     0.199700000000     0          
T        Si     0.777133333333     0.805066666667     0.599900000000     0          
T        Si     0.750266666667     0.750266666667     0.299900000000     0          
T        Si     0.861333333333     0.972466666667     0.900300000000     0          
T        Si     0.861333333333     0.972433333333     0.199700000000     0          
T        Si     0.861600000000     0.972066666667     0.599900000000     0          
T        Si     0.916400000000     0.666666666667     0.299900000000     0          
T        Si     0.694200000000     0.888866666667     0.900300000000     0          
T        Si     0.694233333333     0.888900000000     0.199700000000     0          
T        Si     0.694600000000     0.889533333333     0.599900000000     0          
T        Si     0.666666666667     0.916400000000     0.299900000000     0          
T        Si     0.861333333333     0.888866666667     0.900300000000     0          
T        Si     0.861333333333     0.888900000000     0.199700000000     0          
T        Si     0.861600000000     0.889533333333     0.599900000000     0          
T        Si     0.916666666667     0.916666666667     0.000000000000     0          
T        Si     0.916400000000     0.916400000000     0.299900000000     0          
T        Si     0.916600000000     0.916600000000     0.500000000000     0          
T        Si     0.777800000000     0.972466666667     0.900300000000     0          
T        Si     0.777766666667     0.972433333333     0.199700000000     0          
T        Si     0.777133333333     0.972066666667     0.599900000000     0          
T        Si     0.750000000000     0.666666666667     0.000000000000     0          
T        Si     0.750266666667     0.666666666667     0.299900000000     0          
T        Si     0.750066666667     0.666666666667     0.500000000000     0          
T        Si     0.694200000000     0.805333333333     0.900300000000     0          
T        Si     0.694233333333     0.805333333333     0.199700000000     0          
T        Si     0.694600000000     0.805066666667     0.599900000000     0          
T        Si     0.666666666667     0.750000000000     0.000000000000     0          
T        Si     0.666666666667     0.750266666667     0.299900000000     0          
T        Si     0.666666666667     0.750066666667     0.500000000000     0          
T        Si     0.888866666667     0.861333333333     0.099700000000     0          
T        Si     0.888900000000     0.861333333333     0.800300000000     0          
T        Si     0.889533333333     0.861600000000     0.400100000000     0          
T        Si     0.916400000000     0.916400000000     0.700100000000     0          
T        Si     0.805333333333     0.694200000000     0.099700000000     0          
T        Si     0.805333333333     0.694233333333     0.800300000000     0          
T        Si     0.805066666667     0.694600000000     0.400100000000     0          
T        Si     0.750266666667     0.666666666667     0.700100000000     0          
T        Si     0.972466666667     0.777800000000     0.099700000000     0          
T        Si     0.972433333333     0.777766666667     0.800300000000     0          
T        Si     0.972066666667     0.777133333333     0.400100000000     0          
T        Si     0.666666666667     0.750266666667     0.700100000000     0          
O        O      0.142500000000     0.071266666667     0.106400000000     0          
O        O      0.293533333333     0.253766666667     0.293200000000     0          
O        O      0.078900000000     0.039433333333     0.506800000000     0          
O        O      0.221800000000     0.325333333333     0.650400000000     0          
O        O      0.111566666667     0.103600000000     0.450700000000     0          
O        O      0.118966666667     0.118933333333     0.850300000000     0          
O        O      0.148300000000     0.074133333333     0.400100000000     0          
O        O      0.111300000000     0.103466666667     0.049500000000     0          
O        O      0.150933333333     0.182400000000     0.206600000000     0          
O        O      0.179800000000     0.026266666667     0.400100000000     0          
O        O      0.111033333333     0.103166666667     0.750300000000     0          
O        O      0.293433333333     0.253566666667     0.693100000000     0          
O        O      0.142633333333     0.071333333333     0.807100000000     0          
O        O      0.301733333333     0.150866666667     0.093000000000     0          
O        O      0.039400000000     0.078800000000     0.006800000000     0          
O        O      0.262066666667     0.071233333333     0.106400000000     0          
O        O      0.079566666667     0.039766666667     0.293200000000     0          
O        O      0.293900000000     0.039466666667     0.506800000000     0          
O        O      0.008000000000     0.229800000000     0.650400000000     0          
O        O      0.229733333333     0.007966666667     0.450700000000     0          
O        O      0.214400000000     0.000033333333     0.850300000000     0          
O        O      0.259200000000     0.074166666667     0.400100000000     0          
O        O      0.229866666667     0.007833333333     0.049500000000     0          
O        O      0.150933333333     0.301866666667     0.206600000000     0          
O        O      0.307066666667     0.153533333333     0.400100000000     0          
O        O      0.230166666667     0.007866666667     0.750300000000     0          
O        O      0.079766666667     0.039866666667     0.693100000000     0          
O        O      0.262000000000     0.071300000000     0.807100000000     0          
O        O      0.182466666667     0.150866666667     0.093000000000     0          
O        O      0.254533333333     0.293933333333     0.006800000000     0          
O        O      0.262100000000     0.190833333333     0.106400000000     0          
O        O      0.293566666667     0.039800000000     0.293200000000     0          
O        O      0.293866666667     0.254433333333     0.506800000000     0          
O        O      0.103533333333     0.111533333333     0.650400000000     0          
O        O      0.325366666667     0.221766666667     0.450700000000     0          
O        O      0.333300000000     0.214366666667     0.850300000000     0          
O        O      0.259166666667     0.185033333333     0.400100000000     0          
O        O      0.325500000000     0.222033333333     0.049500000000     0          
O        O      0.031466666667     0.182400000000     0.206600000000     0          
O        O      0.179800000000     0.153533333333     0.400100000000     0          
O        O      0.325466666667     0.222300000000     0.750300000000     0          
O        O      0.293466666667     0.039900000000     0.693100000000     0          
O        O      0.262033333333     0.190700000000     0.807100000000     0          
O        O      0.182466666667     0.031600000000     0.093000000000     0          
O        O      0.039400000000     0.293933333333     0.006800000000     0          
O        O      0.071266666667     0.142500000000     0.893600000000     0          
O        O      0.253766666667     0.293533333333     0.706800000000     0          
O        O      0.039433333333     0.078900000000     0.493200000000     0          
O        O      0.325333333333     0.221800000000     0.349600000000     0          
O        O      0.103600000000     0.111566666667     0.549300000000     0          
O        O      0.118933333333     0.118966666667     0.149700000000     0          
O        O      0.074133333333     0.148300000000     0.599900000000     0          
O        O      0.103466666667     0.111300000000     0.950500000000     0          
O        O      0.182400000000     0.150933333333     0.793400000000     0          
O        O      0.026266666667     0.179800000000     0.599900000000     0          
O        O      0.103166666667     0.111033333333     0.249700000000     0          
O        O      0.253566666667     0.293433333333     0.306900000000     0          
O        O      0.071333333333     0.142633333333     0.192900000000     0          
O        O      0.150866666667     0.301733333333     0.907000000000     0          
O        O      0.078800000000     0.039400000000     0.993200000000     0          
O        O      0.190833333333     0.262100000000     0.893600000000     0          
O        O      0.039800000000     0.293566666667     0.706800000000     0          
O        O      0.254433333333     0.293866666667     0.493200000000     0          
O        O      0.111533333333     0.103533333333     0.349600000000     0          
O        O      0.221766666667     0.325366666667     0.549300000000     0          
O        O      0.214366666667     0.333300000000     0.149700000000     0          
O        O      0.185033333333     0.259166666667     0.599900000000     0          
O        O      0.222033333333     0.325500000000     0.950500000000     0          
O        O      0.182400000000     0.031466666667     0.793400000000     0          
O        O      0.153533333333     0.179800000000     0.599900000000     0          
O        O      0.222300000000     0.325466666667     0.249700000000     0          
O        O      0.039900000000     0.293466666667     0.306900000000     0          
O        O      0.190700000000     0.262033333333     0.192900000000     0          
O        O      0.031600000000     0.182466666667     0.907000000000     0          
O        O      0.293933333333     0.039400000000     0.993200000000     0          
O        O      0.071233333333     0.262066666667     0.893600000000     0          
O        O      0.039766666667     0.079566666667     0.706800000000     0          
O        O      0.039466666667     0.293900000000     0.493200000000     0          
O        O      0.229800000000     0.008000000000     0.349600000000     0          
O        O      0.007966666667     0.229733333333     0.549300000000     0          
O        O      0.000033333333     0.214400000000     0.149700000000     0          
O        O      0.074166666667     0.259200000000     0.599900000000     0          
O        O      0.007833333333     0.229866666667     0.950500000000     0          
O        O      0.301866666667     0.150933333333     0.793400000000     0          
O        O      0.153533333333     0.307066666667     0.599900000000     0          
O        O      0.007866666667     0.230166666667     0.249700000000     0          
O        O      0.039866666667     0.079766666667     0.306900000000     0          
O        O      0.071300000000     0.262000000000     0.192900000000     0          
O        O      0.150866666667     0.182466666667     0.907000000000     0          
O        O      0.293933333333     0.254533333333     0.993200000000     0          
O        O      0.111533333333     0.008000000000     0.349600000000     0          
O        O      0.221766666667     0.229733333333     0.549300000000     0          
O        O      0.214366666667     0.214400000000     0.149700000000     0          
O        O      0.222033333333     0.229866666667     0.950500000000     0          
O        O      0.222300000000     0.230166666667     0.249700000000     0          
O        O      0.325333333333     0.103533333333     0.349600000000     0          
O        O      0.103600000000     0.325366666667     0.549300000000     0          
O        O      0.118933333333     0.333300000000     0.149700000000     0          
O        O      0.103466666667     0.325500000000     0.950500000000     0          
O        O      0.103166666667     0.325466666667     0.249700000000     0          
O        O      0.229800000000     0.221800000000     0.349600000000     0          
O        O      0.007966666667     0.111566666667     0.549300000000     0          
O        O      0.000033333333     0.118966666667     0.149700000000     0          
O        O      0.007833333333     0.111300000000     0.950500000000     0          
O        O      0.007866666667     0.111033333333     0.249700000000     0          
O        O      0.008000000000     0.111533333333     0.650400000000     0          
O        O      0.229733333333     0.221766666667     0.450700000000     0          
O        O      0.214400000000     0.214366666667     0.850300000000     0          
O        O      0.229866666667     0.222033333333     0.049500000000     0          
O        O      0.230166666667     0.222300000000     0.750300000000     0          
O        O      0.221800000000     0.229800000000     0.650400000000     0          
O        O      0.111566666667     0.007966666667     0.450700000000     0          
O        O      0.118966666667     0.000033333333     0.850300000000     0          
O        O      0.111300000000     0.007833333333     0.049500000000     0          
O        O      0.111033333333     0.007866666667     0.750300000000     0          
O        O      0.103533333333     0.325333333333     0.650400000000     0          
O        O      0.325366666667     0.103600000000     0.450700000000     0          
O        O      0.333300000000     0.118933333333     0.850300000000     0          
O        O      0.325500000000     0.103466666667     0.049500000000     0          
O        O      0.325466666667     0.103166666667     0.750300000000     0          
O        O      0.142500000000     0.404600000000     0.106400000000     0          
O        O      0.293533333333     0.587100000000     0.293200000000     0          
O        O      0.078900000000     0.372766666667     0.506800000000     0          
O        O      0.221800000000     0.658666666667     0.650400000000     0          
O        O      0.111566666667     0.436933333333     0.450700000000     0          
O        O      0.118966666667     0.452266666667     0.850300000000     0          
O        O      0.148300000000     0.407466666667     0.400100000000     0          
O        O      0.111300000000     0.436800000000     0.049500000000     0          
O        O      0.150933333333     0.515733333333     0.206600000000     0          
O        O      0.179800000000     0.359600000000     0.400100000000     0          
O        O      0.111033333333     0.436500000000     0.750300000000     0          
O        O      0.293433333333     0.586900000000     0.693100000000     0          
O        O      0.142633333333     0.404666666667     0.807100000000     0          
O        O      0.301733333333     0.484200000000     0.093000000000     0          
O        O      0.039400000000     0.412133333333     0.006800000000     0          
O        O      0.262066666667     0.404566666667     0.106400000000     0          
O        O      0.079566666667     0.373100000000     0.293200000000     0          
O        O      0.293900000000     0.372800000000     0.506800000000     0          
O        O      0.008000000000     0.563133333333     0.650400000000     0          
O        O      0.229733333333     0.341300000000     0.450700000000     0          
O        O      0.214400000000     0.333366666667     0.850300000000     0          
O        O      0.259200000000     0.407500000000     0.400100000000     0          
O        O      0.229866666667     0.341166666667     0.049500000000     0          
O        O      0.150933333333     0.635200000000     0.206600000000     0          
O        O      0.307066666667     0.486866666667     0.400100000000     0          
O        O      0.230166666667     0.341200000000     0.750300000000     0          
O        O      0.079766666667     0.373200000000     0.693100000000     0          
O        O      0.262000000000     0.404633333333     0.807100000000     0          
O        O      0.182466666667     0.484200000000     0.093000000000     0          
O        O      0.254533333333     0.627266666667     0.006800000000     0          
O        O      0.262100000000     0.524166666667     0.106400000000     0          
O        O      0.293566666667     0.373133333333     0.293200000000     0          
O        O      0.293866666667     0.587766666667     0.506800000000     0          
O        O      0.103533333333     0.444866666667     0.650400000000     0          
O        O      0.325366666667     0.555100000000     0.450700000000     0          
O        O      0.333300000000     0.547700000000     0.850300000000     0          
O        O      0.259166666667     0.518366666667     0.400100000000     0          
O        O      0.325500000000     0.555366666667     0.049500000000     0          
O        O      0.031466666667     0.515733333333     0.206600000000     0          
O        O      0.179800000000     0.486866666667     0.400100000000     0          
O        O      0.325466666667     0.555633333333     0.750300000000     0          
O        O      0.293466666667     0.373233333333     0.693100000000     0          
O        O      0.262033333333     0.524033333333     0.807100000000     0          
O        O      0.182466666667     0.364933333333     0.093000000000     0          
O        O      0.039400000000     0.627266666667     0.006800000000     0          
O        O      0.071266666667     0.475833333333     0.893600000000     0          
O        O      0.253766666667     0.626866666667     0.706800000000     0          
O        O      0.039433333333     0.412233333333     0.493200000000     0          
O        O      0.325333333333     0.555133333333     0.349600000000     0          
O        O      0.103600000000     0.444900000000     0.549300000000     0          
O        O      0.118933333333     0.452300000000     0.149700000000     0          
O        O      0.074133333333     0.481633333333     0.599900000000     0          
O        O      0.103466666667     0.444633333333     0.950500000000     0          
O        O      0.182400000000     0.484266666667     0.793400000000     0          
O        O      0.026266666667     0.513133333333     0.599900000000     0          
O        O      0.103166666667     0.444366666667     0.249700000000     0          
O        O      0.253566666667     0.626766666667     0.306900000000     0          
O        O      0.071333333333     0.475966666667     0.192900000000     0          
O        O      0.150866666667     0.635066666667     0.907000000000     0          
O        O      0.078800000000     0.372733333333     0.993200000000     0          
O        O      0.190833333333     0.595433333333     0.893600000000     0          
O        O      0.039800000000     0.626900000000     0.706800000000     0          
O        O      0.254433333333     0.627200000000     0.493200000000     0          
O        O      0.111533333333     0.436866666667     0.349600000000     0          
O        O      0.221766666667     0.658700000000     0.549300000000     0          
O        O      0.214366666667     0.666633333333     0.149700000000     0          
O        O      0.185033333333     0.592500000000     0.599900000000     0          
O        O      0.222033333333     0.658833333333     0.950500000000     0          
O        O      0.182400000000     0.364800000000     0.793400000000     0          
O        O      0.153533333333     0.513133333333     0.599900000000     0          
O        O      0.222300000000     0.658800000000     0.249700000000     0          
O        O      0.039900000000     0.626800000000     0.306900000000     0          
O        O      0.190700000000     0.595366666667     0.192900000000     0          
O        O      0.031600000000     0.515800000000     0.907000000000     0          
O        O      0.293933333333     0.372733333333     0.993200000000     0          
O        O      0.071233333333     0.595400000000     0.893600000000     0          
O        O      0.039766666667     0.412900000000     0.706800000000     0          
O        O      0.039466666667     0.627233333333     0.493200000000     0          
O        O      0.229800000000     0.341333333333     0.349600000000     0          
O        O      0.007966666667     0.563066666667     0.549300000000     0          
O        O      0.000033333333     0.547733333333     0.149700000000     0          
O        O      0.074166666667     0.592533333333     0.599900000000     0          
O        O      0.007833333333     0.563200000000     0.950500000000     0          
O        O      0.301866666667     0.484266666667     0.793400000000     0          
O        O      0.153533333333     0.640400000000     0.599900000000     0          
O        O      0.007866666667     0.563500000000     0.249700000000     0          
O        O      0.039866666667     0.413100000000     0.306900000000     0          
O        O      0.071300000000     0.595333333333     0.192900000000     0          
O        O      0.150866666667     0.515800000000     0.907000000000     0          
O        O      0.293933333333     0.587866666667     0.993200000000     0          
O        O      0.111533333333     0.341333333333     0.349600000000     0          
O        O      0.221766666667     0.563066666667     0.549300000000     0          
O        O      0.214366666667     0.547733333333     0.149700000000     0          
O        O      0.222033333333     0.563200000000     0.950500000000     0          
O        O      0.222300000000     0.563500000000     0.249700000000     0          
O        O      0.325333333333     0.436866666667     0.349600000000     0          
O        O      0.103600000000     0.658700000000     0.549300000000     0          
O        O      0.118933333333     0.666633333333     0.149700000000     0          
O        O      0.103466666667     0.658833333333     0.950500000000     0          
O        O      0.103166666667     0.658800000000     0.249700000000     0          
O        O      0.229800000000     0.555133333333     0.349600000000     0          
O        O      0.007966666667     0.444900000000     0.549300000000     0          
O        O      0.000033333333     0.452300000000     0.149700000000     0          
O        O      0.007833333333     0.444633333333     0.950500000000     0          
O        O      0.007866666667     0.444366666667     0.249700000000     0          
O        O      0.008000000000     0.444866666667     0.650400000000     0          
O        O      0.229733333333     0.555100000000     0.450700000000     0          
O        O      0.214400000000     0.547700000000     0.850300000000     0          
O        O      0.229866666667     0.555366666667     0.049500000000     0          
O        O      0.230166666667     0.555633333333     0.750300000000     0          
O        O      0.221800000000     0.563133333333     0.650400000000     0          
O        O      0.111566666667     0.341300000000     0.450700000000     0          
O        O      0.118966666667     0.333366666667     0.850300000000     0          
O        O      0.111300000000     0.341166666667     0.049500000000     0          
O        O      0.111033333333     0.341200000000     0.750300000000     0          
O        O      0.103533333333     0.658666666667     0.650400000000     0          
O        O      0.325366666667     0.436933333333     0.450700000000     0          
O        O      0.333300000000     0.452266666667     0.850300000000     0          
O        O      0.325500000000     0.436800000000     0.049500000000     0          
O        O      0.325466666667     0.436500000000     0.750300000000     0          
O        O      0.142500000000     0.737933333333     0.106400000000     0          
O        O      0.293533333333     0.920433333333     0.293200000000     0          
O        O      0.078900000000     0.706100000000     0.506800000000     0          
O        O      0.221800000000     0.992000000000     0.650400000000     0          
O        O      0.111566666667     0.770266666667     0.450700000000     0          
O        O      0.118966666667     0.785600000000     0.850300000000     0          
O        O      0.148300000000     0.740800000000     0.400100000000     0          
O        O      0.111300000000     0.770133333333     0.049500000000     0          
O        O      0.150933333333     0.849066666667     0.206600000000     0          
O        O      0.179800000000     0.692933333333     0.400100000000     0          
O        O      0.111033333333     0.769833333333     0.750300000000     0          
O        O      0.293433333333     0.920233333333     0.693100000000     0          
O        O      0.142633333333     0.738000000000     0.807100000000     0          
O        O      0.301733333333     0.817533333333     0.093000000000     0          
O        O      0.039400000000     0.745466666667     0.006800000000     0          
O        O      0.262066666667     0.737900000000     0.106400000000     0          
O        O      0.079566666667     0.706433333333     0.293200000000     0          
O        O      0.293900000000     0.706133333333     0.506800000000     0          
O        O      0.008000000000     0.896466666667     0.650400000000     0          
O        O      0.229733333333     0.674633333333     0.450700000000     0          
O        O      0.214400000000     0.666700000000     0.850300000000     0          
O        O      0.259200000000     0.740833333333     0.400100000000     0          
O        O      0.229866666667     0.674500000000     0.049500000000     0          
O        O      0.150933333333     0.968533333333     0.206600000000     0          
O        O      0.307066666667     0.820200000000     0.400100000000     0          
O        O      0.230166666667     0.674533333333     0.750300000000     0          
O        O      0.079766666667     0.706533333333     0.693100000000     0          
O        O      0.262000000000     0.737966666667     0.807100000000     0          
O        O      0.182466666667     0.817533333333     0.093000000000     0          
O        O      0.254533333333     0.960600000000     0.006800000000     0          
O        O      0.262100000000     0.857500000000     0.106400000000     0          
O        O      0.293566666667     0.706466666667     0.293200000000     0          
O        O      0.293866666667     0.921100000000     0.506800000000     0          
O        O      0.103533333333     0.778200000000     0.650400000000     0          
O        O      0.325366666667     0.888433333333     0.450700000000     0          
O        O      0.333300000000     0.881033333333     0.850300000000     0          
O        O      0.259166666667     0.851700000000     0.400100000000     0          
O        O      0.325500000000     0.888700000000     0.049500000000     0          
O        O      0.031466666667     0.849066666667     0.206600000000     0          
O        O      0.179800000000     0.820200000000     0.400100000000     0          
O        O      0.325466666667     0.888966666667     0.750300000000     0          
O        O      0.293466666667     0.706566666667     0.693100000000     0          
O        O      0.262033333333     0.857366666667     0.807100000000     0          
O        O      0.182466666667     0.698266666667     0.093000000000     0          
O        O      0.039400000000     0.960600000000     0.006800000000     0          
O        O      0.071266666667     0.809166666667     0.893600000000     0          
O        O      0.253766666667     0.960200000000     0.706800000000     0          
O        O      0.039433333333     0.745566666667     0.493200000000     0          
O        O      0.325333333333     0.888466666667     0.349600000000     0          
O        O      0.103600000000     0.778233333333     0.549300000000     0          
O        O      0.118933333333     0.785633333333     0.149700000000     0          
O        O      0.074133333333     0.814966666667     0.599900000000     0          
O        O      0.103466666667     0.777966666667     0.950500000000     0          
O        O      0.182400000000     0.817600000000     0.793400000000     0          
O        O      0.026266666667     0.846466666667     0.599900000000     0          
O        O      0.103166666667     0.777700000000     0.249700000000     0          
O        O      0.253566666667     0.960100000000     0.306900000000     0          
O        O      0.071333333333     0.809300000000     0.192900000000     0          
O        O      0.150866666667     0.968400000000     0.907000000000     0          
O        O      0.078800000000     0.706066666667     0.993200000000     0          
O        O      0.190833333333     0.928766666667     0.893600000000     0          
O        O      0.039800000000     0.960233333333     0.706800000000     0          
O        O      0.254433333333     0.960533333333     0.493200000000     0          
O        O      0.111533333333     0.770200000000     0.349600000000     0          
O        O      0.221766666667     0.992033333333     0.549300000000     0          
O        O      0.214366666667     0.999966666667     0.149700000000     0          
O        O      0.185033333333     0.925833333333     0.599900000000     0          
O        O      0.222033333333     0.992166666667     0.950500000000     0          
O        O      0.182400000000     0.698133333333     0.793400000000     0          
O        O      0.153533333333     0.846466666667     0.599900000000     0          
O        O      0.222300000000     0.992133333333     0.249700000000     0          
O        O      0.039900000000     0.960133333333     0.306900000000     0          
O        O      0.190700000000     0.928700000000     0.192900000000     0          
O        O      0.031600000000     0.849133333333     0.907000000000     0          
O        O      0.293933333333     0.706066666667     0.993200000000     0          
O        O      0.071233333333     0.928733333333     0.893600000000     0          
O        O      0.039766666667     0.746233333333     0.706800000000     0          
O        O      0.039466666667     0.960566666667     0.493200000000     0          
O        O      0.229800000000     0.674666666667     0.349600000000     0          
O        O      0.007966666667     0.896400000000     0.549300000000     0          
O        O      0.000033333333     0.881066666667     0.149700000000     0          
O        O      0.074166666667     0.925866666667     0.599900000000     0          
O        O      0.007833333333     0.896533333333     0.950500000000     0          
O        O      0.301866666667     0.817600000000     0.793400000000     0          
O        O      0.153533333333     0.973733333333     0.599900000000     0          
O        O      0.007866666667     0.896833333333     0.249700000000     0          
O        O      0.039866666667     0.746433333333     0.306900000000     0          
O        O      0.071300000000     0.928666666667     0.192900000000     0          
O        O      0.150866666667     0.849133333333     0.907000000000     0          
O        O      0.293933333333     0.921200000000     0.993200000000     0          
O        O      0.111533333333     0.674666666667     0.349600000000     0          
O        O      0.221766666667     0.896400000000     0.549300000000     0          
O        O      0.214366666667     0.881066666667     0.149700000000     0          
O        O      0.222033333333     0.896533333333     0.950500000000     0          
O        O      0.222300000000     0.896833333333     0.249700000000     0          
O        O      0.325333333333     0.770200000000     0.349600000000     0          
O        O      0.103600000000     0.992033333333     0.549300000000     0          
O        O      0.118933333333     0.999966666667     0.149700000000     0          
O        O      0.103466666667     0.992166666667     0.950500000000     0          
O        O      0.103166666667     0.992133333333     0.249700000000     0          
O        O      0.229800000000     0.888466666667     0.349600000000     0          
O        O      0.007966666667     0.778233333333     0.549300000000     0          
O        O      0.000033333333     0.785633333333     0.149700000000     0          
O        O      0.007833333333     0.777966666667     0.950500000000     0          
O        O      0.007866666667     0.777700000000     0.249700000000     0          
O        O      0.008000000000     0.778200000000     0.650400000000     0          
O        O      0.229733333333     0.888433333333     0.450700000000     0          
O        O      0.214400000000     0.881033333333     0.850300000000     0          
O        O      0.229866666667     0.888700000000     0.049500000000     0          
O        O      0.230166666667     0.888966666667     0.750300000000     0          
O        O      0.221800000000     0.896466666667     0.650400000000     0          
O        O      0.111566666667     0.674633333333     0.450700000000     0          
O        O      0.118966666667     0.666700000000     0.850300000000     0          
O        O      0.111300000000     0.674500000000     0.049500000000     0          
O        O      0.111033333333     0.674533333333     0.750300000000     0          
O        O      0.103533333333     0.992000000000     0.650400000000     0          
O        O      0.325366666667     0.770266666667     0.450700000000     0          
O        O      0.333300000000     0.785600000000     0.850300000000     0          
O        O      0.325500000000     0.770133333333     0.049500000000     0          
O        O      0.325466666667     0.769833333333     0.750300000000     0          
O        O      0.475833333333     0.071266666667     0.106400000000     0          
O        O      0.626866666667     0.253766666667     0.293200000000     0          
O        O      0.412233333333     0.039433333333     0.506800000000     0          
O        O      0.555133333333     0.325333333333     0.650400000000     0          
O        O      0.444900000000     0.103600000000     0.450700000000     0          
O        O      0.452300000000     0.118933333333     0.850300000000     0          
O        O      0.481633333333     0.074133333333     0.400100000000     0          
O        O      0.444633333333     0.103466666667     0.049500000000     0          
O        O      0.484266666667     0.182400000000     0.206600000000     0          
O        O      0.513133333333     0.026266666667     0.400100000000     0          
O        O      0.444366666667     0.103166666667     0.750300000000     0          
O        O      0.626766666667     0.253566666667     0.693100000000     0          
O        O      0.475966666667     0.071333333333     0.807100000000     0          
O        O      0.635066666667     0.150866666667     0.093000000000     0          
O        O      0.372733333333     0.078800000000     0.006800000000     0          
O        O      0.595400000000     0.071233333333     0.106400000000     0          
O        O      0.412900000000     0.039766666667     0.293200000000     0          
O        O      0.627233333333     0.039466666667     0.506800000000     0          
O        O      0.341333333333     0.229800000000     0.650400000000     0          
O        O      0.563066666667     0.007966666667     0.450700000000     0          
O        O      0.547733333333     0.000033333333     0.850300000000     0          
O        O      0.592533333333     0.074166666667     0.400100000000     0          
O        O      0.563200000000     0.007833333333     0.049500000000     0          
O        O      0.484266666667     0.301866666667     0.206600000000     0          
O        O      0.640400000000     0.153533333333     0.400100000000     0          
O        O      0.563500000000     0.007866666667     0.750300000000     0          
O        O      0.413100000000     0.039866666667     0.693100000000     0          
O        O      0.595333333333     0.071300000000     0.807100000000     0          
O        O      0.515800000000     0.150866666667     0.093000000000     0          
O        O      0.587866666667     0.293933333333     0.006800000000     0          
O        O      0.595433333333     0.190833333333     0.106400000000     0          
O        O      0.626900000000     0.039800000000     0.293200000000     0          
O        O      0.627200000000     0.254433333333     0.506800000000     0          
O        O      0.436866666667     0.111533333333     0.650400000000     0          
O        O      0.658700000000     0.221766666667     0.450700000000     0          
O        O      0.666633333333     0.214366666667     0.850300000000     0          
O        O      0.592500000000     0.185033333333     0.400100000000     0          
O        O      0.658833333333     0.222033333333     0.049500000000     0          
O        O      0.364800000000     0.182400000000     0.206600000000     0          
O        O      0.513133333333     0.153533333333     0.400100000000     0          
O        O      0.658800000000     0.222300000000     0.750300000000     0          
O        O      0.626800000000     0.039900000000     0.693100000000     0          
O        O      0.595366666667     0.190700000000     0.807100000000     0          
O        O      0.515800000000     0.031600000000     0.093000000000     0          
O        O      0.372733333333     0.293933333333     0.006800000000     0          
O        O      0.404600000000     0.142500000000     0.893600000000     0          
O        O      0.587100000000     0.293533333333     0.706800000000     0          
O        O      0.372766666667     0.078900000000     0.493200000000     0          
O        O      0.658666666667     0.221800000000     0.349600000000     0          
O        O      0.436933333333     0.111566666667     0.549300000000     0          
O        O      0.452266666667     0.118966666667     0.149700000000     0          
O        O      0.407466666667     0.148300000000     0.599900000000     0          
O        O      0.436800000000     0.111300000000     0.950500000000     0          
O        O      0.515733333333     0.150933333333     0.793400000000     0          
O        O      0.359600000000     0.179800000000     0.599900000000     0          
O        O      0.436500000000     0.111033333333     0.249700000000     0          
O        O      0.586900000000     0.293433333333     0.306900000000     0          
O        O      0.404666666667     0.142633333333     0.192900000000     0          
O        O      0.484200000000     0.301733333333     0.907000000000     0          
O        O      0.412133333333     0.039400000000     0.993200000000     0          
O        O      0.524166666667     0.262100000000     0.893600000000     0          
O        O      0.373133333333     0.293566666667     0.706800000000     0          
O        O      0.587766666667     0.293866666667     0.493200000000     0          
O        O      0.444866666667     0.103533333333     0.349600000000     0          
O        O      0.555100000000     0.325366666667     0.549300000000     0          
O        O      0.547700000000     0.333300000000     0.149700000000     0          
O        O      0.518366666667     0.259166666667     0.599900000000     0          
O        O      0.555366666667     0.325500000000     0.950500000000     0          
O        O      0.515733333333     0.031466666667     0.793400000000     0          
O        O      0.486866666667     0.179800000000     0.599900000000     0          
O        O      0.555633333333     0.325466666667     0.249700000000     0          
O        O      0.373233333333     0.293466666667     0.306900000000     0          
O        O      0.524033333333     0.262033333333     0.192900000000     0          
O        O      0.364933333333     0.182466666667     0.907000000000     0          
O        O      0.627266666667     0.039400000000     0.993200000000     0          
O        O      0.404566666667     0.262066666667     0.893600000000     0          
O        O      0.373100000000     0.079566666667     0.706800000000     0          
O        O      0.372800000000     0.293900000000     0.493200000000     0          
O        O      0.563133333333     0.008000000000     0.349600000000     0          
O        O      0.341300000000     0.229733333333     0.549300000000     0          
O        O      0.333366666667     0.214400000000     0.149700000000     0          
O        O      0.407500000000     0.259200000000     0.599900000000     0          
O        O      0.341166666667     0.229866666667     0.950500000000     0          
O        O      0.635200000000     0.150933333333     0.793400000000     0          
O        O      0.486866666667     0.307066666667     0.599900000000     0          
O        O      0.341200000000     0.230166666667     0.249700000000     0          
O        O      0.373200000000     0.079766666667     0.306900000000     0          
O        O      0.404633333333     0.262000000000     0.192900000000     0          
O        O      0.484200000000     0.182466666667     0.907000000000     0          
O        O      0.627266666667     0.254533333333     0.993200000000     0          
O        O      0.444866666667     0.008000000000     0.349600000000     0          
O        O      0.555100000000     0.229733333333     0.549300000000     0          
O        O      0.547700000000     0.214400000000     0.149700000000     0          
O        O      0.555366666667     0.229866666667     0.950500000000     0          
O        O      0.555633333333     0.230166666667     0.249700000000     0          
O        O      0.658666666667     0.103533333333     0.349600000000     0          
O        O      0.436933333333     0.325366666667     0.549300000000     0          
O        O      0.452266666667     0.333300000000     0.149700000000     0          
O        O      0.436800000000     0.325500000000     0.950500000000     0          
O        O      0.436500000000     0.325466666667     0.249700000000     0          
O        O      0.563133333333     0.221800000000     0.349600000000     0          
O        O      0.341300000000     0.111566666667     0.549300000000     0          
O        O      0.333366666667     0.118966666667     0.149700000000     0          
O        O      0.341166666667     0.111300000000     0.950500000000     0          
O        O      0.341200000000     0.111033333333     0.249700000000     0          
O        O      0.341333333333     0.111533333333     0.650400000000     0          
O        O      0.563066666667     0.221766666667     0.450700000000     0          
O        O      0.547733333333     0.214366666667     0.850300000000     0          
O        O      0.563200000000     0.222033333333     0.049500000000     0          
O        O      0.563500000000     0.222300000000     0.750300000000     0          
O        O      0.555133333333     0.229800000000     0.650400000000     0          
O        O      0.444900000000     0.007966666667     0.450700000000     0          
O        O      0.452300000000     0.000033333333     0.850300000000     0          
O        O      0.444633333333     0.007833333333     0.049500000000     0          
O        O      0.444366666667     0.007866666667     0.750300000000     0          
O        O      0.436866666667     0.325333333333     0.650400000000     0          
O        O      0.658700000000     0.103600000000     0.450700000000     0          
O        O      0.666633333333     0.118933333333     0.850300000000     0          
O        O      0.658833333333     0.103466666667     0.049500000000     0          
O        O      0.658800000000     0.103166666667     0.750300000000     0          
O        O      0.475833333333     0.404600000000     0.106400000000     0          
O        O      0.626866666667     0.587100000000     0.293200000000     0          
O        O      0.412233333333     0.372766666667     0.506800000000     0          
O        O      0.555133333333     0.658666666667     0.650400000000     0          
O        O      0.444900000000     0.436933333333     0.450700000000     0          
O        O      0.452300000000     0.452266666667     0.850300000000     0          
O        O      0.481633333333     0.407466666667     0.400100000000     0          
O        O      0.444633333333     0.436800000000     0.049500000000     0          
O        O      0.484266666667     0.515733333333     0.206600000000     0          
O        O      0.513133333333     0.359600000000     0.400100000000     0          
O        O      0.444366666667     0.436500000000     0.750300000000     0          
O        O      0.626766666667     0.586900000000     0.693100000000     0          
O        O      0.475966666667     0.404666666667     0.807100000000     0          
O        O      0.635066666667     0.484200000000     0.093000000000     0          
O        O      0.372733333333     0.412133333333     0.006800000000     0          
O        O      0.595400000000     0.404566666667     0.106400000000     0          
O        O      0.412900000000     0.373100000000     0.293200000000     0          
O        O      0.627233333333     0.372800000000     0.506800000000     0          
O        O      0.341333333333     0.563133333333     0.650400000000     0          
O        O      0.563066666667     0.341300000000     0.450700000000     0          
O        O      0.547733333333     0.333366666667     0.850300000000     0          
O        O      0.592533333333     0.407500000000     0.400100000000     0          
O        O      0.563200000000     0.341166666667     0.049500000000     0          
O        O      0.484266666667     0.635200000000     0.206600000000     0          
O        O      0.640400000000     0.486866666667     0.400100000000     0          
O        O      0.563500000000     0.341200000000     0.750300000000     0          
O        O      0.413100000000     0.373200000000     0.693100000000     0          
O        O      0.595333333333     0.404633333333     0.807100000000     0          
O        O      0.515800000000     0.484200000000     0.093000000000     0          
O        O      0.587866666667     0.627266666667     0.006800000000     0          
O        O      0.595433333333     0.524166666667     0.106400000000     0          
O        O      0.626900000000     0.373133333333     0.293200000000     0          
O        O      0.627200000000     0.587766666667     0.506800000000     0          
O        O      0.436866666667     0.444866666667     0.650400000000     0          
O        O      0.658700000000     0.555100000000     0.450700000000     0          
O        O      0.666633333333     0.547700000000     0.850300000000     0          
O        O      0.592500000000     0.518366666667     0.400100000000     0          
O        O      0.658833333333     0.555366666667     0.049500000000     0          
O        O      0.364800000000     0.515733333333     0.206600000000     0          
O        O      0.513133333333     0.486866666667     0.400100000000     0          
O        O      0.658800000000     0.555633333333     0.750300000000     0          
O        O      0.626800000000     0.373233333333     0.693100000000     0          
O        O      0.595366666667     0.524033333333     0.807100000000     0          
O        O      0.515800000000     0.364933333333     0.093000000000     0          
O        O      0.372733333333     0.627266666667     0.006800000000     0          
O        O      0.404600000000     0.475833333333     0.893600000000     0          
O        O      0.587100000000     0.626866666667     0.706800000000     0          
O        O      0.372766666667     0.412233333333     0.493200000000     0          
O        O      0.658666666667     0.555133333333     0.349600000000     0          
O        O      0.436933333333     0.444900000000     0.549300000000     0          
O        O      0.452266666667     0.452300000000     0.149700000000     0          
O        O      0.407466666667     0.481633333333     0.599900000000     0          
O        O      0.436800000000     0.444633333333     0.950500000000     0          
O        O      0.515733333333     0.484266666667     0.793400000000     0          
O        O      0.359600000000     0.513133333333     0.599900000000     0          
O        O      0.436500000000     0.444366666667     0.249700000000     0          
O        O      0.586900000000     0.626766666667     0.306900000000     0          
O        O      0.404666666667     0.475966666667     0.192900000000     0          
O        O      0.484200000000     0.635066666667     0.907000000000     0          
O        O      0.412133333333     0.372733333333     0.993200000000     0          
O        O      0.524166666667     0.595433333333     0.893600000000     0          
O        O      0.373133333333     0.626900000000     0.706800000000     0          
O        O      0.587766666667     0.627200000000     0.493200000000     0          
O        O      0.444866666667     0.436866666667     0.349600000000     0          
O        O      0.555100000000     0.658700000000     0.549300000000     0          
O        O      0.547700000000     0.666633333333     0.149700000000     0          
O        O      0.518366666667     0.592500000000     0.599900000000     0          
O        O      0.555366666667     0.658833333333     0.950500000000     0          
O        O      0.515733333333     0.364800000000     0.793400000000     0          
O        O      0.486866666667     0.513133333333     0.599900000000     0          
O        O      0.555633333333     0.658800000000     0.249700000000     0          
O        O      0.373233333333     0.626800000000     0.306900000000     0          
O        O      0.524033333333     0.595366666667     0.192900000000     0          
O        O      0.364933333333     0.515800000000     0.907000000000     0          
O        O      0.627266666667     0.372733333333     0.993200000000     0          
O        O      0.404566666667     0.595400000000     0.893600000000     0          
O        O      0.373100000000     0.412900000000     0.706800000000     0          
O        O      0.372800000000     0.627233333333     0.493200000000     0          
O        O      0.563133333333     0.341333333333     0.349600000000     0          
O        O      0.341300000000     0.563066666667     0.549300000000     0          
O        O      0.333366666667     0.547733333333     0.149700000000     0          
O        O      0.407500000000     0.592533333333     0.599900000000     0          
O        O      0.341166666667     0.563200000000     0.950500000000     0          
O        O      0.635200000000     0.484266666667     0.793400000000     0          
O        O      0.486866666667     0.640400000000     0.599900000000     0          
O        O      0.341200000000     0.563500000000     0.249700000000     0          
O        O      0.373200000000     0.413100000000     0.306900000000     0          
O        O      0.404633333333     0.595333333333     0.192900000000     0          
O        O      0.484200000000     0.515800000000     0.907000000000     0          
O        O      0.627266666667     0.587866666667     0.993200000000     0          
O        O      0.444866666667     0.341333333333     0.349600000000     0          
O        O      0.555100000000     0.563066666667     0.549300000000     0          
O        O      0.547700000000     0.547733333333     0.149700000000     0          
O        O      0.555366666667     0.563200000000     0.950500000000     0          
O        O      0.555633333333     0.563500000000     0.249700000000     0          
O        O      0.658666666667     0.436866666667     0.349600000000     0          
O        O      0.436933333333     0.658700000000     0.549300000000     0          
O        O      0.452266666667     0.666633333333     0.149700000000     0          
O        O      0.436800000000     0.658833333333     0.950500000000     0          
O        O      0.436500000000     0.658800000000     0.249700000000     0          
O        O      0.563133333333     0.555133333333     0.349600000000     0          
O        O      0.341300000000     0.444900000000     0.549300000000     0          
O        O      0.333366666667     0.452300000000     0.149700000000     0          
O        O      0.341166666667     0.444633333333     0.950500000000     0          
O        O      0.341200000000     0.444366666667     0.249700000000     0          
O        O      0.341333333333     0.444866666667     0.650400000000     0          
O        O      0.563066666667     0.555100000000     0.450700000000     0          
O        O      0.547733333333     0.547700000000     0.850300000000     0          
O        O      0.563200000000     0.555366666667     0.049500000000     0          
O        O      0.563500000000     0.555633333333     0.750300000000     0          
O        O      0.555133333333     0.563133333333     0.650400000000     0          
O        O      0.444900000000     0.341300000000     0.450700000000     0          
O        O      0.452300000000     0.333366666667     0.850300000000     0          
O        O      0.444633333333     0.341166666667     0.049500000000     0          
O        O      0.444366666667     0.341200000000     0.750300000000     0          
O        O      0.436866666667     0.658666666667     0.650400000000     0          
O        O      0.658700000000     0.436933333333     0.450700000000     0          
O        O      0.666633333333     0.452266666667     0.850300000000     0          
O        O      0.658833333333     0.436800000000     0.049500000000     0          
O        O      0.658800000000     0.436500000000     0.750300000000     0          
O        O      0.475833333333     0.737933333333     0.106400000000     0          
O        O      0.626866666667     0.920433333333     0.293200000000     0          
O        O      0.412233333333     0.706100000000     0.506800000000     0          
O        O      0.555133333333     0.992000000000     0.650400000000     0          
O        O      0.444900000000     0.770266666667     0.450700000000     0          
O        O      0.452300000000     0.785600000000     0.850300000000     0          
O        O      0.481633333333     0.740800000000     0.400100000000     0          
O        O      0.444633333333     0.770133333333     0.049500000000     0          
O        O      0.484266666667     0.849066666667     0.206600000000     0          
O        O      0.513133333333     0.692933333333     0.400100000000     0          
O        O      0.444366666667     0.769833333333     0.750300000000     0          
O        O      0.626766666667     0.920233333333     0.693100000000     0          
O        O      0.475966666667     0.738000000000     0.807100000000     0          
O        O      0.635066666667     0.817533333333     0.093000000000     0          
O        O      0.372733333333     0.745466666667     0.006800000000     0          
O        O      0.595400000000     0.737900000000     0.106400000000     0          
O        O      0.412900000000     0.706433333333     0.293200000000     0          
O        O      0.627233333333     0.706133333333     0.506800000000     0          
O        O      0.341333333333     0.896466666667     0.650400000000     0          
O        O      0.563066666667     0.674633333333     0.450700000000     0          
O        O      0.547733333333     0.666700000000     0.850300000000     0          
O        O      0.592533333333     0.740833333333     0.400100000000     0          
O        O      0.563200000000     0.674500000000     0.049500000000     0          
O        O      0.484266666667     0.968533333333     0.206600000000     0          
O        O      0.640400000000     0.820200000000     0.400100000000     0          
O        O      0.563500000000     0.674533333333     0.750300000000     0          
O        O      0.413100000000     0.706533333333     0.693100000000     0          
O        O      0.595333333333     0.737966666667     0.807100000000     0          
O        O      0.515800000000     0.817533333333     0.093000000000     0          
O        O      0.587866666667     0.960600000000     0.006800000000     0          
O        O      0.595433333333     0.857500000000     0.106400000000     0          
O        O      0.626900000000     0.706466666667     0.293200000000     0          
O        O      0.627200000000     0.921100000000     0.506800000000     0          
O        O      0.436866666667     0.778200000000     0.650400000000     0          
O        O      0.658700000000     0.888433333333     0.450700000000     0          
O        O      0.666633333333     0.881033333333     0.850300000000     0          
O        O      0.592500000000     0.851700000000     0.400100000000     0          
O        O      0.658833333333     0.888700000000     0.049500000000     0          
O        O      0.364800000000     0.849066666667     0.206600000000     0          
O        O      0.513133333333     0.820200000000     0.400100000000     0          
O        O      0.658800000000     0.888966666667     0.750300000000     0          
O        O      0.626800000000     0.706566666667     0.693100000000     0          
O        O      0.595366666667     0.857366666667     0.807100000000     0          
O        O      0.515800000000     0.698266666667     0.093000000000     0          
O        O      0.372733333333     0.960600000000     0.006800000000     0          
O        O      0.404600000000     0.809166666667     0.893600000000     0          
O        O      0.587100000000     0.960200000000     0.706800000000     0          
O        O      0.372766666667     0.745566666667     0.493200000000     0          
O        O      0.658666666667     0.888466666667     0.349600000000     0          
O        O      0.436933333333     0.778233333333     0.549300000000     0          
O        O      0.452266666667     0.785633333333     0.149700000000     0          
O        O      0.407466666667     0.814966666667     0.599900000000     0          
O        O      0.436800000000     0.777966666667     0.950500000000     0          
O        O      0.515733333333     0.817600000000     0.793400000000     0          
O        O      0.359600000000     0.846466666667     0.599900000000     0          
O        O      0.436500000000     0.777700000000     0.249700000000     0          
O        O      0.586900000000     0.960100000000     0.306900000000     0          
O        O      0.404666666667     0.809300000000     0.192900000000     0          
O        O      0.484200000000     0.968400000000     0.907000000000     0          
O        O      0.412133333333     0.706066666667     0.993200000000     0          
O        O      0.524166666667     0.928766666667     0.893600000000     0          
O        O      0.373133333333     0.960233333333     0.706800000000     0          
O        O      0.587766666667     0.960533333333     0.493200000000     0          
O        O      0.444866666667     0.770200000000     0.349600000000     0          
O        O      0.555100000000     0.992033333333     0.549300000000     0          
O        O      0.547700000000     0.999966666667     0.149700000000     0          
O        O      0.518366666667     0.925833333333     0.599900000000     0          
O        O      0.555366666667     0.992166666667     0.950500000000     0          
O        O      0.515733333333     0.698133333333     0.793400000000     0          
O        O      0.486866666667     0.846466666667     0.599900000000     0          
O        O      0.555633333333     0.992133333333     0.249700000000     0          
O        O      0.373233333333     0.960133333333     0.306900000000     0          
O        O      0.524033333333     0.928700000000     0.192900000000     0          
O        O      0.364933333333     0.849133333333     0.907000000000     0          
O        O      0.627266666667     0.706066666667     0.993200000000     0          
O        O      0.404566666667     0.928733333333     0.893600000000     0          
O        O      0.373100000000     0.746233333333     0.706800000000     0          
O        O      0.372800000000     0.960566666667     0.493200000000     0          
O        O      0.563133333333     0.674666666667     0.349600000000     0          
O        O      0.341300000000     0.896400000000     0.549300000000     0          
O        O      0.333366666667     0.881066666667     0.149700000000     0          
O        O      0.407500000000     0.925866666667     0.599900000000     0          
O        O      0.341166666667     0.896533333333     0.950500000000     0          
O        O      0.635200000000     0.817600000000     0.793400000000     0          
O        O      0.486866666667     0.973733333333     0.599900000000     0          
O        O      0.341200000000     0.896833333333     0.249700000000     0          
O        O      0.373200000000     0.746433333333     0.306900000000     0          
O        O      0.404633333333     0.928666666667     0.192900000000     0          
O        O      0.484200000000     0.849133333333     0.907000000000     0          
O        O      0.627266666667     0.921200000000     0.993200000000     0          
O        O      0.444866666667     0.674666666667     0.349600000000     0          
O        O      0.555100000000     0.896400000000     0.549300000000     0          
O        O      0.547700000000     0.881066666667     0.149700000000     0          
O        O      0.555366666667     0.896533333333     0.950500000000     0          
O        O      0.555633333333     0.896833333333     0.249700000000     0          
O        O      0.658666666667     0.770200000000     0.349600000000     0          
O        O      0.436933333333     0.992033333333     0.549300000000     0          
O        O      0.452266666667     0.999966666667     0.149700000000     0          
O        O      0.436800000000     0.992166666667     0.950500000000     0          
O        O      0.436500000000     0.992133333333     0.249700000000     0          
O        O      0.563133333333     0.888466666667     0.349600000000     0          
O        O      0.341300000000     0.778233333333     0.549300000000     0          
O        O      0.333366666667     0.785633333333     0.149700000000     0          
O        O      0.341166666667     0.777966666667     0.950500000000     0          
O        O      0.341200000000     0.777700000000     0.249700000000     0          
O        O      0.341333333333     0.778200000000     0.650400000000     0          
O        O      0.563066666667     0.888433333333     0.450700000000     0          
O        O      0.547733333333     0.881033333333     0.850300000000     0          
O        O      0.563200000000     0.888700000000     0.049500000000     0          
O        O      0.563500000000     0.888966666667     0.750300000000     0          
O        O      0.555133333333     0.896466666667     0.650400000000     0          
O        O      0.444900000000     0.674633333333     0.450700000000     0          
O        O      0.452300000000     0.666700000000     0.850300000000     0          
O        O      0.444633333333     0.674500000000     0.049500000000     0          
O        O      0.444366666667     0.674533333333     0.750300000000     0          
O        O      0.436866666667     0.992000000000     0.650400000000     0          
O        O      0.658700000000     0.770266666667     0.450700000000     0          
O        O      0.666633333333     0.785600000000     0.850300000000     0          
O        O      0.658833333333     0.770133333333     0.049500000000     0          
O        O      0.658800000000     0.769833333333     0.750300000000     0          
O        O      0.809166666667     0.071266666667     0.106400000000     0          
O        O      0.960200000000     0.253766666667     0.293200000000     0          
O        O      0.745566666667     0.039433333333     0.506800000000     0          
O        O      0.888466666667     0.325333333333     0.650400000000     0          
O        O      0.778233333333     0.103600000000     0.450700000000     0          
O        O      0.785633333333     0.118933333333     0.850300000000     0          
O        O      0.814966666667     0.074133333333     0.400100000000     0          
O        O      0.777966666667     0.103466666667     0.049500000000     0          
O        O      0.817600000000     0.182400000000     0.206600000000     0          
O        O      0.846466666667     0.026266666667     0.400100000000     0          
O        O      0.777700000000     0.103166666667     0.750300000000     0          
O        O      0.960100000000     0.253566666667     0.693100000000     0          
O        O      0.809300000000     0.071333333333     0.807100000000     0          
O        O      0.968400000000     0.150866666667     0.093000000000     0          
O        O      0.706066666667     0.078800000000     0.006800000000     0          
O        O      0.928733333333     0.071233333333     0.106400000000     0          
O        O      0.746233333333     0.039766666667     0.293200000000     0          
O        O      0.960566666667     0.039466666667     0.506800000000     0          
O        O      0.674666666667     0.229800000000     0.650400000000     0          
O        O      0.896400000000     0.007966666667     0.450700000000     0          
O        O      0.881066666667     0.000033333333     0.850300000000     0          
O        O      0.925866666667     0.074166666667     0.400100000000     0          
O        O      0.896533333333     0.007833333333     0.049500000000     0          
O        O      0.817600000000     0.301866666667     0.206600000000     0          
O        O      0.973733333333     0.153533333333     0.400100000000     0          
O        O      0.896833333333     0.007866666667     0.750300000000     0          
O        O      0.746433333333     0.039866666667     0.693100000000     0          
O        O      0.928666666667     0.071300000000     0.807100000000     0          
O        O      0.849133333333     0.150866666667     0.093000000000     0          
O        O      0.921200000000     0.293933333333     0.006800000000     0          
O        O      0.928766666667     0.190833333333     0.106400000000     0          
O        O      0.960233333333     0.039800000000     0.293200000000     0          
O        O      0.960533333333     0.254433333333     0.506800000000     0          
O        O      0.770200000000     0.111533333333     0.650400000000     0          
O        O      0.992033333333     0.221766666667     0.450700000000     0          
O        O      0.999966666667     0.214366666667     0.850300000000     0          
O        O      0.925833333333     0.185033333333     0.400100000000     0          
O        O      0.992166666667     0.222033333333     0.049500000000     0          
O        O      0.698133333333     0.182400000000     0.206600000000     0          
O        O      0.846466666667     0.153533333333     0.400100000000     0          
O        O      0.992133333333     0.222300000000     0.750300000000     0          
O        O      0.960133333333     0.039900000000     0.693100000000     0          
O        O      0.928700000000     0.190700000000     0.807100000000     0          
O        O      0.849133333333     0.031600000000     0.093000000000     0          
O        O      0.706066666667     0.293933333333     0.006800000000     0          
O        O      0.737933333333     0.142500000000     0.893600000000     0          
O        O      0.920433333333     0.293533333333     0.706800000000     0          
O        O      0.706100000000     0.078900000000     0.493200000000     0          
O        O      0.992000000000     0.221800000000     0.349600000000     0          
O        O      0.770266666667     0.111566666667     0.549300000000     0          
O        O      0.785600000000     0.118966666667     0.149700000000     0          
O        O      0.740800000000     0.148300000000     0.599900000000     0          
O        O      0.770133333333     0.111300000000     0.950500000000     0          
O        O      0.849066666667     0.150933333333     0.793400000000     0          
O        O      0.692933333333     0.179800000000     0.599900000000     0          
O        O      0.769833333333     0.111033333333     0.249700000000     0          
O        O      0.920233333333     0.293433333333     0.306900000000     0          
O        O      0.738000000000     0.142633333333     0.192900000000     0          
O        O      0.817533333333     0.301733333333     0.907000000000     0          
O        O      0.745466666667     0.039400000000     0.993200000000     0          
O        O      0.857500000000     0.262100000000     0.893600000000     0          
O        O      0.706466666667     0.293566666667     0.706800000000     0          
O        O      0.921100000000     0.293866666667     0.493200000000     0          
O        O      0.778200000000     0.103533333333     0.349600000000     0          
O        O      0.888433333333     0.325366666667     0.549300000000     0          
O        O      0.881033333333     0.333300000000     0.149700000000     0          
O        O      0.851700000000     0.259166666667     0.599900000000     0          
O        O      0.888700000000     0.325500000000     0.950500000000     0          
O        O      0.849066666667     0.031466666667     0.793400000000     0          
O        O      0.820200000000     0.179800000000     0.599900000000     0          
O        O      0.888966666667     0.325466666667     0.249700000000     0          
O        O      0.706566666667     0.293466666667     0.306900000000     0          
O        O      0.857366666667     0.262033333333     0.192900000000     0          
O        O      0.698266666667     0.182466666667     0.907000000000     0          
O        O      0.960600000000     0.039400000000     0.993200000000     0          
O        O      0.737900000000     0.262066666667     0.893600000000     0          
O        O      0.706433333333     0.079566666667     0.706800000000     0          
O        O      0.706133333333     0.293900000000     0.493200000000     0          
O        O      0.896466666667     0.008000000000     0.349600000000     0          
O        O      0.674633333333     0.229733333333     0.549300000000     0          
O        O      0.666700000000     0.214400000000     0.149700000000     0          
O        O      0.740833333333     0.259200000000     0.599900000000     0          
O        O      0.674500000000     0.229866666667     0.950500000000     0          
O        O      0.968533333333     0.150933333333     0.793400000000     0          
O        O      0.820200000000     0.307066666667     0.599900000000     0          
O        O      0.674533333333     0.230166666667     0.249700000000     0          
O        O      0.706533333333     0.079766666667     0.306900000000     0          
O        O      0.737966666667     0.262000000000     0.192900000000     0          
O        O      0.817533333333     0.182466666667     0.907000000000     0          
O        O      0.960600000000     0.254533333333     0.993200000000     0          
O        O      0.778200000000     0.008000000000     0.349600000000     0          
O        O      0.888433333333     0.229733333333     0.549300000000     0          
O        O      0.881033333333     0.214400000000     0.149700000000     0          
O        O      0.888700000000     0.229866666667     0.950500000000     0          
O        O      0.888966666667     0.230166666667     0.249700000000     0          
O        O      0.992000000000     0.103533333333     0.349600000000     0          
O        O      0.770266666667     0.325366666667     0.549300000000     0          
O        O      0.785600000000     0.333300000000     0.149700000000     0          
O        O      0.770133333333     0.325500000000     0.950500000000     0          
O        O      0.769833333333     0.325466666667     0.249700000000     0          
O        O      0.896466666667     0.221800000000     0.349600000000     0          
O        O      0.674633333333     0.111566666667     0.549300000000     0          
O        O      0.666700000000     0.118966666667     0.149700000000     0          
O        O      0.674500000000     0.111300000000     0.950500000000     0          
O        O      0.674533333333     0.111033333333     0.249700000000     0          
O        O      0.674666666667     0.111533333333     0.650400000000     0          
O        O      0.896400000000     0.221766666667     0.450700000000     0          
O        O      0.881066666667     0.214366666667     0.850300000000     0          
O        O      0.896533333333     0.222033333333     0.049500000000     0          
O        O      0.896833333333     0.222300000000     0.750300000000     0          
O        O      0.888466666667     0.229800000000     0.650400000000     0          
O        O      0.778233333333     0.007966666667     0.450700000000     0          
O        O      0.785633333333     0.000033333333     0.850300000000     0          
O        O      0.777966666667     0.007833333333     0.049500000000     0          
O        O      0.777700000000     0.007866666667     0.750300000000     0          
O        O      0.770200000000     0.325333333333     0.650400000000     0          
O        O      0.992033333333     0.103600000000     0.450700000000     0          
O        O      0.999966666667     0.118933333333     0.850300000000     0          
O        O      0.992166666667     0.103466666667     0.049500000000     0          
O        O      0.992133333333     0.103166666667     0.750300000000     0          
O        O      0.809166666667     0.404600000000     0.106400000000     0          
O        O      0.960200000000     0.587100000000     0.293200000000     0          
O        O      0.745566666667     0.372766666667     0.506800000000     0          
O        O      0.888466666667     0.658666666667     0.650400000000     0          
O        O      0.778233333333     0.436933333333     0.450700000000     0          
O        O      0.785633333333     0.452266666667     0.850300000000     0          
O        O      0.814966666667     0.407466666667     0.400100000000     0          
O        O      0.777966666667     0.436800000000     0.049500000000     0          
O        O      0.817600000000     0.515733333333     0.206600000000     0          
O        O      0.846466666667     0.359600000000     0.400100000000     0          
O        O      0.777700000000     0.436500000000     0.750300000000     0          
O        O      0.960100000000     0.586900000000     0.693100000000     0          
O        O      0.809300000000     0.404666666667     0.807100000000     0          
O        O      0.968400000000     0.484200000000     0.093000000000     0          
O        O      0.706066666667     0.412133333333     0.006800000000     0          
O        O      0.928733333333     0.404566666667     0.106400000000     0          
O        O      0.746233333333     0.373100000000     0.293200000000     0          
O        O      0.960566666667     0.372800000000     0.506800000000     0          
O        O      0.674666666667     0.563133333333     0.650400000000     0          
O        O      0.896400000000     0.341300000000     0.450700000000     0          
O        O      0.881066666667     0.333366666667     0.850300000000     0          
O        O      0.925866666667     0.407500000000     0.400100000000     0          
O        O      0.896533333333     0.341166666667     0.049500000000     0          
O        O      0.817600000000     0.635200000000     0.206600000000     0          
O        O      0.973733333333     0.486866666667     0.400100000000     0          
O        O      0.896833333333     0.341200000000     0.750300000000     0          
O        O      0.746433333333     0.373200000000     0.693100000000     0          
O        O      0.928666666667     0.404633333333     0.807100000000     0          
O        O      0.849133333333     0.484200000000     0.093000000000     0          
O        O      0.921200000000     0.627266666667     0.006800000000     0          
O        O      0.928766666667     0.524166666667     0.106400000000     0          
O        O      0.960233333333     0.373133333333     0.293200000000     0          
O        O      0.960533333333     0.587766666667     0.506800000000     0          
O        O      0.770200000000     0.444866666667     0.650400000000     0          
O        O      0.992033333333     0.555100000000     0.450700000000     0          
O        O      0.999966666667     0.547700000000     0.850300000000     0          
O        O      0.925833333333     0.518366666667     0.400100000000     0          
O        O      0.992166666667     0.555366666667     0.049500000000     0          
O        O      0.698133333333     0.515733333333     0.206600000000     0          
O        O      0.846466666667     0.486866666667     0.400100000000     0          
O        O      0.992133333333     0.555633333333     0.750300000000     0          
O        O      0.960133333333     0.373233333333     0.693100000000     0          
O        O      0.928700000000     0.524033333333     0.807100000000     0          
O        O      0.849133333333     0.364933333333     0.093000000000     0          
O        O      0.706066666667     0.627266666667     0.006800000000     0          
O        O      0.737933333333     0.475833333333     0.893600000000     0          
O        O      0.920433333333     0.626866666667     0.706800000000     0          
O        O      0.706100000000     0.412233333333     0.493200000000     0          
O        O      0.992000000000     0.555133333333     0.349600000000     0          
O        O      0.770266666667     0.444900000000     0.549300000000     0          
O        O      0.785600000000     0.452300000000     0.149700000000     0          
O        O      0.740800000000     0.481633333333     0.599900000000     0          
O        O      0.770133333333     0.444633333333     0.950500000000     0          
O        O      0.849066666667     0.484266666667     0.793400000000     0          
O        O      0.692933333333     0.513133333333     0.599900000000     0          
O        O      0.769833333333     0.444366666667     0.249700000000     0          
O        O      0.920233333333     0.626766666667     0.306900000000     0          
O        O      0.738000000000     0.475966666667     0.192900000000     0          
O        O      0.817533333333     0.635066666667     0.907000000000     0          
O        O      0.745466666667     0.372733333333     0.993200000000     0          
O        O      0.857500000000     0.595433333333     0.893600000000     0          
O        O      0.706466666667     0.626900000000     0.706800000000     0          
O        O      0.921100000000     0.627200000000     0.493200000000     0          
O        O      0.778200000000     0.436866666667     0.349600000000     0          
O        O      0.888433333333     0.658700000000     0.549300000000     0          
O        O      0.881033333333     0.666633333333     0.149700000000     0          
O        O      0.851700000000     0.592500000000     0.599900000000     0          
O        O      0.888700000000     0.658833333333     0.950500000000     0          
O        O      0.849066666667     0.364800000000     0.793400000000     0          
O        O      0.820200000000     0.513133333333     0.599900000000     0          
O        O      0.888966666667     0.658800000000     0.249700000000     0          
O        O      0.706566666667     0.626800000000     0.306900000000     0          
O        O      0.857366666667     0.595366666667     0.192900000000     0          
O        O      0.698266666667     0.515800000000     0.907000000000     0          
O        O      0.960600000000     0.372733333333     0.993200000000     0          
O        O      0.737900000000     0.595400000000     0.893600000000     0          
O        O      0.706433333333     0.412900000000     0.706800000000     0          
O        O      0.706133333333     0.627233333333     0.493200000000     0          
O        O      0.896466666667     0.341333333333     0.349600000000     0          
O        O      0.674633333333     0.563066666667     0.549300000000     0          
O        O      0.666700000000     0.547733333333     0.149700000000     0          
O        O      0.740833333333     0.592533333333     0.599900000000     0          
O        O      0.674500000000     0.563200000000     0.950500000000     0          
O        O      0.968533333333     0.484266666667     0.793400000000     0          
O        O      0.820200000000     0.640400000000     0.599900000000     0          
O        O      0.674533333333     0.563500000000     0.249700000000     0          
O        O      0.706533333333     0.413100000000     0.306900000000     0          
O        O      0.737966666667     0.595333333333     0.192900000000     0          
O        O      0.817533333333     0.515800000000     0.907000000000     0          
O        O      0.960600000000     0.587866666667     0.993200000000     0          
O        O      0.778200000000     0.341333333333     0.349600000000     0          
O        O      0.888433333333     0.563066666667     0.549300000000     0          
O        O      0.881033333333     0.547733333333     0.149700000000     0          
O        O      0.888700000000     0.563200000000     0.950500000000     0          
O        O      0.888966666667     0.563500000000     0.249700000000     0          
O        O      0.992000000000     0.436866666667     0.349600000000     0          
O        O      0.770266666667     0.658700000000     0.549300000000     0          
O        O      0.785600000000     0.666633333333     0.149700000000     0          
O        O      0.770133333333     0.658833333333     0.950500000000     0          
O        O      0.769833333333     0.658800000000     0.249700000000     0          
O        O      0.896466666667     0.555133333333     0.349600000000     0          
O        O      0.674633333333     0.444900000000     0.549300000000     0          
O        O      0.666700000000     0.452300000000     0.149700000000     0          
O        O      0.674500000000     0.444633333333     0.950500000000     0          
O        O      0.674533333333     0.444366666667     0.249700000000     0          
O        O      0.674666666667     0.444866666667     0.650400000000     0          
O        O      0.896400000000     0.555100000000     0.450700000000     0          
O        O      0.881066666667     0.547700000000     0.850300000000     0          
O        O      0.896533333333     0.555366666667     0.049500000000     0          
O        O      0.896833333333     0.555633333333     0.750300000000     0          
O        O      0.888466666667     0.563133333333     0.650400000000     0          
O        O      0.778233333333     0.341300000000     0.450700000000     0          
O        O      0.785633333333     0.333366666667     0.850300000000     0          
O        O      0.777966666667     0.341166666667     0.049500000000     0          
O        O      0.777700000000     0.341200000000     0.750300000000     0          
O        O      0.770200000000     0.658666666667     0.650400000000     0          
O        O      0.992033333333     0.436933333333     0.450700000000     0          
O        O      0.999966666667     0.452266666667     0.850300000000     0          
O        O      0.992166666667     0.436800000000     0.049500000000     0          
O        O      0.992133333333     0.436500000000     0.750300000000     0          
O        O      0.809166666667     0.737933333333     0.106400000000     0          
O        O      0.960200000000     0.920433333333     0.293200000000     0          
O        O      0.745566666667     0.706100000000     0.506800000000     0          
O        O      0.888466666667     0.992000000000     0.650400000000     0          
O        O      0.778233333333     0.770266666667     0.450700000000     0          
O        O      0.785633333333     0.785600000000     0.850300000000     0          
O        O      0.814966666667     0.740800000000     0.400100000000     0          
O        O      0.777966666667     0.770133333333     0.049500000000     0          
O        O      0.817600000000     0.849066666667     0.206600000000     0          
O        O      0.846466666667     0.692933333333     0.400100000000     0          
O        O      0.777700000000     0.769833333333     0.750300000000     0          
O        O      0.960100000000     0.920233333333     0.693100000000     0          
O        O      0.809300000000     0.738000000000     0.807100000000     0          
O        O      0.968400000000     0.817533333333     0.093000000000     0          
O        O      0.706066666667     0.745466666667     0.006800000000     0          
O        O      0.928733333333     0.737900000000     0.106400000000     0          
O        O      0.746233333333     0.706433333333     0.293200000000     0          
O        O      0.960566666667     0.706133333333     0.506800000000     0          
O        O      0.674666666667     0.896466666667     0.650400000000     0          
O        O      0.896400000000     0.674633333333     0.450700000000     0          
O        O      0.881066666667     0.666700000000     0.850300000000     0          
O        O      0.925866666667     0.740833333333     0.400100000000     0          
O        O      0.896533333333     0.674500000000     0.049500000000     0          
O        O      0.817600000000     0.968533333333     0.206600000000     0          
O        O      0.973733333333     0.820200000000     0.400100000000     0          
O        O      0.896833333333     0.674533333333     0.750300000000     0          
O        O      0.746433333333     0.706533333333     0.693100000000     0          
O        O      0.928666666667     0.737966666667     0.807100000000     0          
O        O      0.849133333333     0.817533333333     0.093000000000     0          
O        O      0.921200000000     0.960600000000     0.006800000000     0          
O        O      0.928766666667     0.857500000000     0.106400000000     0          
O        O      0.960233333333     0.706466666667     0.293200000000     0          
O        O      0.960533333333     0.921100000000     0.506800000000     0          
O        O      0.770200000000     0.778200000000     0.650400000000     0          
O        O      0.992033333333     0.888433333333     0.450700000000     0          
O        O      0.999966666667     0.881033333333     0.850300000000     0          
O        O      0.925833333333     0.851700000000     0.400100000000     0          
O        O      0.992166666667     0.888700000000     0.049500000000     0          
O        O      0.698133333333     0.849066666667     0.206600000000     0          
O        O      0.846466666667     0.820200000000     0.400100000000     0          
O        O      0.992133333333     0.888966666667     0.750300000000     0          
O        O      0.960133333333     0.706566666667     0.693100000000     0          
O        O      0.928700000000     0.857366666667     0.807100000000     0          
O        O      0.849133333333     0.698266666667     0.093000000000     0          
O        O      0.706066666667     0.960600000000     0.006800000000     0          
O        O      0.737933333333     0.809166666667     0.893600000000     0          
O        O      0.920433333333     0.960200000000     0.706800000000     0          
O        O      0.706100000000     0.745566666667     0.493200000000     0          
O        O      0.992000000000     0.888466666667     0.349600000000     0          
O        O      0.770266666667     0.778233333333     0.549300000000     0          
O        O      0.785600000000     0.785633333333     0.149700000000     0          
O        O      0.740800000000     0.814966666667     0.599900000000     0          
O        O      0.770133333333     0.777966666667     0.950500000000     0          
O        O      0.849066666667     0.817600000000     0.793400000000     0          
O        O      0.692933333333     0.846466666667     0.599900000000     0          
O        O      0.769833333333     0.777700000000     0.249700000000     0          
O        O      0.920233333333     0.960100000000     0.306900000000     0          
O        O      0.738000000000     0.809300000000     0.192900000000     0          
O        O      0.817533333333     0.968400000000     0.907000000000     0          
O        O      0.745466666667     0.706066666667     0.993200000000     0          
O        O      0.857500000000     0.928766666667     0.893600000000     0          
O        O      0.706466666667     0.960233333333     0.706800000000     0          
O        O      0.921100000000     0.960533333333     0.493200000000     0          
O        O      0.778200000000     0.770200000000     0.349600000000     0          
O        O      0.888433333333     0.992033333333     0.549300000000     0          
O        O      0.881033333333     0.999966666667     0.149700000000     0          
O        O      0.851700000000     0.925833333333     0.599900000000     0          
O        O      0.888700000000     0.992166666667     0.950500000000     0          
O        O      0.849066666667     0.698133333333     0.793400000000     0          
O        O      0.820200000000     0.846466666667     0.599900000000     0          
O        O      0.888966666667     0.992133333333     0.249700000000     0          
O        O      0.706566666667     0.960133333333     0.306900000000     0          
O        O      0.857366666667     0.928700000000     0.192900000000     0          
O        O      0.698266666667     0.849133333333     0.907000000000     0          
O        O      0.960600000000     0.706066666667     0.993200000000     0          
O        O      0.737900000000     0.928733333333     0.893600000000     0          
O        O      0.706433333333     0.746233333333     0.706800000000     0          
O        O      0.706133333333     0.960566666667     0.493200000000     0          
O        O      0.896466666667     0.674666666667     0.349600000000     0          
O        O      0.674633333333     0.896400000000     0.549300000000     0          
O        O      0.666700000000     0.881066666667     0.149700000000     0          
O        O      0.740833333333     0.925866666667     0.599900000000     0          
O        O      0.674500000000     0.896533333333     0.950500000000     0          
O        O      0.968533333333     0.817600000000     0.793400000000     0          
O        O      0.820200000000     0.973733333333     0.599900000000     0          
O        O      0.674533333333     0.896833333333     0.249700000000     0          
O        O      0.706533333333     0.746433333333     0.306900000000     0          
O        O      0.737966666667     0.928666666667     0.192900000000     0          
O        O      0.817533333333     0.849133333333     0.907000000000     0          
O        O      0.960600000000     0.921200000000     0.993200000000     0          
O        O      0.778200000000     0.674666666667     0.349600000000     0          
O        O      0.888433333333     0.896400000000     0.549300000000     0          
O        O      0.881033333333     0.881066666667     0.149700000000     0          
O        O      0.888700000000     0.896533333333     0.950500000000     0          
O        O      0.888966666667     0.896833333333     0.249700000000     0          
O        O      0.992000000000     0.770200000000     0.349600000000     0          
O        O      0.770266666667     0.992033333333     0.549300000000     0          
O        O      0.785600000000     0.999966666667     0.149700000000     0          
O        O      0.770133333333     0.992166666667     0.950500000000     0          
O        O      0.769833333333     0.992133333333     0.249700000000     0          
O        O      0.896466666667     0.888466666667     0.349600000000     0          
O        O      0.674633333333     0.778233333333     0.549300000000     0          
O        O      0.666700000000     0.785633333333     0.149700000000     0          
O        O      0.674500000000     0.777966666667     0.950500000000     0          
O        O      0.674533333333     0.777700000000     0.249700000000     0          
O        O      0.674666666667     0.778200000000     0.650400000000     0          
O        O      0.896400000000     0.888433333333     0.450700000000     0          
O        O      0.881066666667     0.881033333333     0.850300000000     0          
O        O      0.896533333333     0.888700000000     0.049500000000     0          
O        O      0.896833333333     0.888966666667     0.750300000000     0          
O        O      0.888466666667     0.896466666667     0.650400000000     0          
O        O      0.778233333333     0.674633333333     0.450700000000     0          
O        O      0.785633333333     0.666700000000     0.850300000000     0          
O        O      0.777966666667     0.674500000000     0.049500000000     0          
O        O      0.777700000000     0.674533333333     0.750300000000     0          
O        O      0.770200000000     0.992000000000     0.650400000000     0          
O        O      0.992033333333     0.770266666667     0.450700000000     0          
O        O      0.999966666667     0.785600000000     0.850300000000     0          
O        O      0.992166666667     0.770133333333     0.049500000000     0          
O        O      0.992133333333     0.769833333333     0.750300000000     0          


