data_zeolite

_audit_creation_method RASPA-1.0
_audit_creation_date 2021-6-7
_audit_author_name ''

_cell_length_a    32.829
_cell_length_b    28.76
_cell_length_c    33.496
_cell_angle_alpha 90
_cell_angle_beta  90
_cell_angle_gamma 90
_cell_volume      31625.7

_symmetry_cell_setting          orthorhombic
_symmetry_space_group_name_Hall 'P 1'
_symmetry_space_group_name_H-M  'P 1'
_symmetry_Int_Tables_number     1

_symmetry_equiv_pos_as_xyz 'x,y,z'

loop_
_atom_site_label
_atom_site_type_symbol
_atom_site_fract_x
_atom_site_fract_y
_atom_site_fract_z
_atom_site_charge
O        O      0.088000000000     0.054750000000     0.187500000000     0          
O        O      0.040200000000     0.078200000000     0.127775000000     0          
O        O      0.081600000000     0.000000000000     0.125000000000     0          
O        O      0.119700000000     0.080150000000     0.119000000000     0          
O        O      0.214100000000     0.055350000000     0.187500000000     0          
O        O      0.273000000000     0.060400000000     0.134400000000     0          
O        O      0.213600000000     0.000000000000     0.125000000000     0          
O        O      0.199400000000     0.089150000000     0.116025000000     0          
O        O      0.199100000000     0.207550000000     0.187500000000     0          
O        O      0.168000000000     0.250000000000     0.125000000000     0          
O        O      0.154200000000     0.160600000000     0.136350000000     0          
O        O      0.153400000000     0.130450000000     0.062500000000     0          
O        O      0.000000000000     0.444400000000     0.187500000000     0          
O        O      0.000000000000     0.000000000000     0.125000000000     0          
T        Si     0.082400000000     0.053200000000     0.139825000000     0          
T        Si     0.225100000000     0.051150000000     0.140825000000     0          
T        Si     0.186900000000     0.201900000000     0.141225000000     0          
T        Si     0.156600000000     0.114950000000     0.016425000000     0          
T        Si     0.000000000000     0.446750000000     0.139575000000     0          
O        O      0.912000000000     0.445250000000     0.062500000000     0          
O        O      0.959800000000     0.421800000000     0.002775000000     0          
O        O      0.918400000000     0.000000000000     0.000000000000     0          
O        O      0.880300000000     0.419850000000     0.244000000000     0          
O        O      0.785900000000     0.444650000000     0.062500000000     0          
O        O      0.727000000000     0.439600000000     0.009400000000     0          
O        O      0.786400000000     0.000000000000     0.000000000000     0          
O        O      0.800600000000     0.410850000000     0.241025000000     0          
O        O      0.800900000000     0.292450000000     0.062500000000     0          
O        O      0.832000000000     0.250000000000     0.000000000000     0          
O        O      0.845800000000     0.339400000000     0.011350000000     0          
O        O      0.846600000000     0.369550000000     0.187500000000     0          
O        O      0.000000000000     0.055600000000     0.062500000000     0          
O        O      0.000000000000     0.000000000000     0.000000000000     0          
T        Si     0.917600000000     0.446800000000     0.014825000000     0          
T        Si     0.774900000000     0.448850000000     0.015825000000     0          
T        Si     0.813100000000     0.298100000000     0.016225000000     0          
T        Si     0.843400000000     0.385050000000     0.141425000000     0          
T        Si     0.000000000000     0.053250000000     0.014575000000     0          
O        O      0.088000000000     0.445250000000     0.062500000000     0          
O        O      0.040200000000     0.421800000000     0.122225000000     0          
O        O      0.119700000000     0.419850000000     0.131000000000     0          
O        O      0.214100000000     0.444650000000     0.062500000000     0          
O        O      0.273000000000     0.439600000000     0.115600000000     0          
O        O      0.199400000000     0.410850000000     0.133975000000     0          
O        O      0.199100000000     0.292450000000     0.062500000000     0          
O        O      0.154200000000     0.339400000000     0.113650000000     0          
O        O      0.153400000000     0.369550000000     0.187500000000     0          
T        Si     0.082400000000     0.446800000000     0.110175000000     0          
T        Si     0.225100000000     0.448850000000     0.109175000000     0          
T        Si     0.186900000000     0.298100000000     0.108775000000     0          
T        Si     0.156600000000     0.385050000000     0.233575000000     0          
T        Si     0.000000000000     0.053250000000     0.110425000000     0          
O        O      0.912000000000     0.054750000000     0.187500000000     0          
O        O      0.959800000000     0.078200000000     0.247225000000     0          
O        O      0.880300000000     0.080150000000     0.006000000000     0          
O        O      0.785900000000     0.055350000000     0.187500000000     0          
O        O      0.727000000000     0.060400000000     0.240600000000     0          
O        O      0.800600000000     0.089150000000     0.008975000000     0          
O        O      0.800900000000     0.207550000000     0.187500000000     0          
O        O      0.845800000000     0.160600000000     0.238650000000     0          
O        O      0.846600000000     0.130450000000     0.062500000000     0          
T        Si     0.917600000000     0.053200000000     0.235175000000     0          
T        Si     0.774900000000     0.051150000000     0.234175000000     0          
T        Si     0.813100000000     0.201900000000     0.233775000000     0          
T        Si     0.843400000000     0.114950000000     0.108575000000     0          
T        Si     0.000000000000     0.446750000000     0.235425000000     0          
O        O      0.959800000000     0.421800000000     0.122225000000     0          
O        O      0.918400000000     0.000000000000     0.125000000000     0          
O        O      0.880300000000     0.419850000000     0.131000000000     0          
O        O      0.727000000000     0.439600000000     0.115600000000     0          
O        O      0.786400000000     0.000000000000     0.125000000000     0          
O        O      0.800600000000     0.410850000000     0.133975000000     0          
O        O      0.832000000000     0.250000000000     0.125000000000     0          
O        O      0.845800000000     0.339400000000     0.113650000000     0          
T        Si     0.917600000000     0.446800000000     0.110175000000     0          
T        Si     0.774900000000     0.448850000000     0.109175000000     0          
T        Si     0.813100000000     0.298100000000     0.108775000000     0          
T        Si     0.843400000000     0.385050000000     0.233575000000     0          
O        O      0.040200000000     0.078200000000     0.247225000000     0          
O        O      0.081600000000     0.000000000000     0.000000000000     0          
O        O      0.119700000000     0.080150000000     0.006000000000     0          
O        O      0.273000000000     0.060400000000     0.240600000000     0          
O        O      0.213600000000     0.000000000000     0.000000000000     0          
O        O      0.199400000000     0.089150000000     0.008975000000     0          
O        O      0.168000000000     0.250000000000     0.000000000000     0          
O        O      0.154200000000     0.160600000000     0.238650000000     0          
T        Si     0.082400000000     0.053200000000     0.235175000000     0          
T        Si     0.225100000000     0.051150000000     0.234175000000     0          
T        Si     0.186900000000     0.201900000000     0.233775000000     0          
T        Si     0.156600000000     0.114950000000     0.108575000000     0          
O        O      0.959800000000     0.078200000000     0.127775000000     0          
O        O      0.880300000000     0.080150000000     0.119000000000     0          
O        O      0.727000000000     0.060400000000     0.134400000000     0          
O        O      0.800600000000     0.089150000000     0.116025000000     0          
O        O      0.845800000000     0.160600000000     0.136350000000     0          
T        Si     0.917600000000     0.053200000000     0.139825000000     0          
T        Si     0.774900000000     0.051150000000     0.140825000000     0          
T        Si     0.813100000000     0.201900000000     0.141225000000     0          
T        Si     0.843400000000     0.114950000000     0.016425000000     0          
O        O      0.040200000000     0.421800000000     0.002775000000     0          
O        O      0.119700000000     0.419850000000     0.244000000000     0          
O        O      0.273000000000     0.439600000000     0.009400000000     0          
O        O      0.199400000000     0.410850000000     0.241025000000     0          
O        O      0.154200000000     0.339400000000     0.011350000000     0          
T        Si     0.082400000000     0.446800000000     0.014825000000     0          
T        Si     0.225100000000     0.448850000000     0.015825000000     0          
T        Si     0.186900000000     0.298100000000     0.016225000000     0          
T        Si     0.156600000000     0.385050000000     0.141425000000     0          
O        O      0.588000000000     0.304750000000     0.187500000000     0          
O        O      0.540200000000     0.328200000000     0.127775000000     0          
O        O      0.581600000000     0.250000000000     0.125000000000     0          
O        O      0.619700000000     0.330150000000     0.119000000000     0          
O        O      0.714100000000     0.305350000000     0.187500000000     0          
O        O      0.773000000000     0.310400000000     0.134400000000     0          
O        O      0.713600000000     0.250000000000     0.125000000000     0          
O        O      0.699400000000     0.339150000000     0.116025000000     0          
O        O      0.699100000000     0.457550000000     0.187500000000     0          
O        O      0.668000000000     0.000000000000     0.125000000000     0          
O        O      0.654200000000     0.410600000000     0.136350000000     0          
O        O      0.653400000000     0.380450000000     0.062500000000     0          
O        O      0.500000000000     0.194400000000     0.187500000000     0          
O        O      0.500000000000     0.250000000000     0.125000000000     0          
T        Si     0.582400000000     0.303200000000     0.139825000000     0          
T        Si     0.725100000000     0.301150000000     0.140825000000     0          
T        Si     0.686900000000     0.451900000000     0.141225000000     0          
T        Si     0.656600000000     0.364950000000     0.016425000000     0          
T        Si     0.500000000000     0.196750000000     0.139575000000     0          
O        O      0.412000000000     0.195250000000     0.062500000000     0          
O        O      0.459800000000     0.171800000000     0.002775000000     0          
O        O      0.418400000000     0.250000000000     0.000000000000     0          
O        O      0.380300000000     0.169850000000     0.244000000000     0          
O        O      0.285900000000     0.194650000000     0.062500000000     0          
O        O      0.227000000000     0.189600000000     0.009400000000     0          
O        O      0.286400000000     0.250000000000     0.000000000000     0          
O        O      0.300600000000     0.160850000000     0.241025000000     0          
O        O      0.300900000000     0.042450000000     0.062500000000     0          
O        O      0.332000000000     0.000000000000     0.000000000000     0          
O        O      0.345800000000     0.089400000000     0.011350000000     0          
O        O      0.346600000000     0.119550000000     0.187500000000     0          
O        O      0.500000000000     0.305600000000     0.062500000000     0          
O        O      0.500000000000     0.250000000000     0.000000000000     0          
T        Si     0.417600000000     0.196800000000     0.014825000000     0          
T        Si     0.274900000000     0.198850000000     0.015825000000     0          
T        Si     0.313100000000     0.048100000000     0.016225000000     0          
T        Si     0.343400000000     0.135050000000     0.141425000000     0          
T        Si     0.500000000000     0.303250000000     0.014575000000     0          
O        O      0.588000000000     0.195250000000     0.062500000000     0          
O        O      0.540200000000     0.171800000000     0.122225000000     0          
O        O      0.619700000000     0.169850000000     0.131000000000     0          
O        O      0.714100000000     0.194650000000     0.062500000000     0          
O        O      0.773000000000     0.189600000000     0.115600000000     0          
O        O      0.699400000000     0.160850000000     0.133975000000     0          
O        O      0.699100000000     0.042450000000     0.062500000000     0          
O        O      0.654200000000     0.089400000000     0.113650000000     0          
O        O      0.653400000000     0.119550000000     0.187500000000     0          
T        Si     0.582400000000     0.196800000000     0.110175000000     0          
T        Si     0.725100000000     0.198850000000     0.109175000000     0          
T        Si     0.686900000000     0.048100000000     0.108775000000     0          
T        Si     0.656600000000     0.135050000000     0.233575000000     0          
T        Si     0.500000000000     0.303250000000     0.110425000000     0          
O        O      0.412000000000     0.304750000000     0.187500000000     0          
O        O      0.459800000000     0.328200000000     0.247225000000     0          
O        O      0.380300000000     0.330150000000     0.006000000000     0          
O        O      0.285900000000     0.305350000000     0.187500000000     0          
O        O      0.227000000000     0.310400000000     0.240600000000     0          
O        O      0.300600000000     0.339150000000     0.008975000000     0          
O        O      0.300900000000     0.457550000000     0.187500000000     0          
O        O      0.345800000000     0.410600000000     0.238650000000     0          
O        O      0.346600000000     0.380450000000     0.062500000000     0          
T        Si     0.417600000000     0.303200000000     0.235175000000     0          
T        Si     0.274900000000     0.301150000000     0.234175000000     0          
T        Si     0.313100000000     0.451900000000     0.233775000000     0          
T        Si     0.343400000000     0.364950000000     0.108575000000     0          
T        Si     0.500000000000     0.196750000000     0.235425000000     0          
O        O      0.459800000000     0.171800000000     0.122225000000     0          
O        O      0.418400000000     0.250000000000     0.125000000000     0          
O        O      0.380300000000     0.169850000000     0.131000000000     0          
O        O      0.227000000000     0.189600000000     0.115600000000     0          
O        O      0.286400000000     0.250000000000     0.125000000000     0          
O        O      0.300600000000     0.160850000000     0.133975000000     0          
O        O      0.332000000000     0.000000000000     0.125000000000     0          
O        O      0.345800000000     0.089400000000     0.113650000000     0          
T        Si     0.417600000000     0.196800000000     0.110175000000     0          
T        Si     0.274900000000     0.198850000000     0.109175000000     0          
T        Si     0.313100000000     0.048100000000     0.108775000000     0          
T        Si     0.343400000000     0.135050000000     0.233575000000     0          
O        O      0.540200000000     0.328200000000     0.247225000000     0          
O        O      0.581600000000     0.250000000000     0.000000000000     0          
O        O      0.619700000000     0.330150000000     0.006000000000     0          
O        O      0.773000000000     0.310400000000     0.240600000000     0          
O        O      0.713600000000     0.250000000000     0.000000000000     0          
O        O      0.699400000000     0.339150000000     0.008975000000     0          
O        O      0.668000000000     0.000000000000     0.000000000000     0          
O        O      0.654200000000     0.410600000000     0.238650000000     0          
T        Si     0.582400000000     0.303200000000     0.235175000000     0          
T        Si     0.725100000000     0.301150000000     0.234175000000     0          
T        Si     0.686900000000     0.451900000000     0.233775000000     0          
T        Si     0.656600000000     0.364950000000     0.108575000000     0          
O        O      0.459800000000     0.328200000000     0.127775000000     0          
O        O      0.380300000000     0.330150000000     0.119000000000     0          
O        O      0.227000000000     0.310400000000     0.134400000000     0          
O        O      0.300600000000     0.339150000000     0.116025000000     0          
O        O      0.345800000000     0.410600000000     0.136350000000     0          
T        Si     0.417600000000     0.303200000000     0.139825000000     0          
T        Si     0.274900000000     0.301150000000     0.140825000000     0          
T        Si     0.313100000000     0.451900000000     0.141225000000     0          
T        Si     0.343400000000     0.364950000000     0.016425000000     0          
O        O      0.540200000000     0.171800000000     0.002775000000     0          
O        O      0.619700000000     0.169850000000     0.244000000000     0          
O        O      0.773000000000     0.189600000000     0.009400000000     0          
O        O      0.699400000000     0.160850000000     0.241025000000     0          
O        O      0.654200000000     0.089400000000     0.011350000000     0          
T        Si     0.582400000000     0.196800000000     0.014825000000     0          
T        Si     0.725100000000     0.198850000000     0.015825000000     0          
T        Si     0.686900000000     0.048100000000     0.016225000000     0          
T        Si     0.656600000000     0.135050000000     0.141425000000     0          
O        O      0.088000000000     0.054750000000     0.437500000000     0          
O        O      0.040200000000     0.078200000000     0.377775000000     0          
O        O      0.081600000000     0.000000000000     0.375000000000     0          
O        O      0.119700000000     0.080150000000     0.369000000000     0          
O        O      0.214100000000     0.055350000000     0.437500000000     0          
O        O      0.273000000000     0.060400000000     0.384400000000     0          
O        O      0.213600000000     0.000000000000     0.375000000000     0          
O        O      0.199400000000     0.089150000000     0.366025000000     0          
O        O      0.199100000000     0.207550000000     0.437500000000     0          
O        O      0.168000000000     0.250000000000     0.375000000000     0          
O        O      0.154200000000     0.160600000000     0.386350000000     0          
O        O      0.153400000000     0.130450000000     0.312500000000     0          
O        O      0.000000000000     0.444400000000     0.437500000000     0          
O        O      0.000000000000     0.000000000000     0.375000000000     0          
T        Si     0.082400000000     0.053200000000     0.389825000000     0          
T        Si     0.225100000000     0.051150000000     0.390825000000     0          
T        Si     0.186900000000     0.201900000000     0.391225000000     0          
T        Si     0.156600000000     0.114950000000     0.266425000000     0          
T        Si     0.000000000000     0.446750000000     0.389575000000     0          
O        O      0.912000000000     0.445250000000     0.312500000000     0          
O        O      0.959800000000     0.421800000000     0.252775000000     0          
O        O      0.918400000000     0.000000000000     0.250000000000     0          
O        O      0.880300000000     0.419850000000     0.494000000000     0          
O        O      0.785900000000     0.444650000000     0.312500000000     0          
O        O      0.727000000000     0.439600000000     0.259400000000     0          
O        O      0.786400000000     0.000000000000     0.250000000000     0          
O        O      0.800600000000     0.410850000000     0.491025000000     0          
O        O      0.800900000000     0.292450000000     0.312500000000     0          
O        O      0.832000000000     0.250000000000     0.250000000000     0          
O        O      0.845800000000     0.339400000000     0.261350000000     0          
O        O      0.846600000000     0.369550000000     0.437500000000     0          
O        O      0.000000000000     0.055600000000     0.312500000000     0          
O        O      0.000000000000     0.000000000000     0.250000000000     0          
T        Si     0.917600000000     0.446800000000     0.264825000000     0          
T        Si     0.774900000000     0.448850000000     0.265825000000     0          
T        Si     0.813100000000     0.298100000000     0.266225000000     0          
T        Si     0.843400000000     0.385050000000     0.391425000000     0          
T        Si     0.000000000000     0.053250000000     0.264575000000     0          
O        O      0.088000000000     0.445250000000     0.312500000000     0          
O        O      0.040200000000     0.421800000000     0.372225000000     0          
O        O      0.119700000000     0.419850000000     0.381000000000     0          
O        O      0.214100000000     0.444650000000     0.312500000000     0          
O        O      0.273000000000     0.439600000000     0.365600000000     0          
O        O      0.199400000000     0.410850000000     0.383975000000     0          
O        O      0.199100000000     0.292450000000     0.312500000000     0          
O        O      0.154200000000     0.339400000000     0.363650000000     0          
O        O      0.153400000000     0.369550000000     0.437500000000     0          
T        Si     0.082400000000     0.446800000000     0.360175000000     0          
T        Si     0.225100000000     0.448850000000     0.359175000000     0          
T        Si     0.186900000000     0.298100000000     0.358775000000     0          
T        Si     0.156600000000     0.385050000000     0.483575000000     0          
T        Si     0.000000000000     0.053250000000     0.360425000000     0          
O        O      0.912000000000     0.054750000000     0.437500000000     0          
O        O      0.959800000000     0.078200000000     0.497225000000     0          
O        O      0.880300000000     0.080150000000     0.256000000000     0          
O        O      0.785900000000     0.055350000000     0.437500000000     0          
O        O      0.727000000000     0.060400000000     0.490600000000     0          
O        O      0.800600000000     0.089150000000     0.258975000000     0          
O        O      0.800900000000     0.207550000000     0.437500000000     0          
O        O      0.845800000000     0.160600000000     0.488650000000     0          
O        O      0.846600000000     0.130450000000     0.312500000000     0          
T        Si     0.917600000000     0.053200000000     0.485175000000     0          
T        Si     0.774900000000     0.051150000000     0.484175000000     0          
T        Si     0.813100000000     0.201900000000     0.483775000000     0          
T        Si     0.843400000000     0.114950000000     0.358575000000     0          
T        Si     0.000000000000     0.446750000000     0.485425000000     0          
O        O      0.959800000000     0.421800000000     0.372225000000     0          
O        O      0.918400000000     0.000000000000     0.375000000000     0          
O        O      0.880300000000     0.419850000000     0.381000000000     0          
O        O      0.727000000000     0.439600000000     0.365600000000     0          
O        O      0.786400000000     0.000000000000     0.375000000000     0          
O        O      0.800600000000     0.410850000000     0.383975000000     0          
O        O      0.832000000000     0.250000000000     0.375000000000     0          
O        O      0.845800000000     0.339400000000     0.363650000000     0          
T        Si     0.917600000000     0.446800000000     0.360175000000     0          
T        Si     0.774900000000     0.448850000000     0.359175000000     0          
T        Si     0.813100000000     0.298100000000     0.358775000000     0          
T        Si     0.843400000000     0.385050000000     0.483575000000     0          
O        O      0.040200000000     0.078200000000     0.497225000000     0          
O        O      0.081600000000     0.000000000000     0.250000000000     0          
O        O      0.119700000000     0.080150000000     0.256000000000     0          
O        O      0.273000000000     0.060400000000     0.490600000000     0          
O        O      0.213600000000     0.000000000000     0.250000000000     0          
O        O      0.199400000000     0.089150000000     0.258975000000     0          
O        O      0.168000000000     0.250000000000     0.250000000000     0          
O        O      0.154200000000     0.160600000000     0.488650000000     0          
T        Si     0.082400000000     0.053200000000     0.485175000000     0          
T        Si     0.225100000000     0.051150000000     0.484175000000     0          
T        Si     0.186900000000     0.201900000000     0.483775000000     0          
T        Si     0.156600000000     0.114950000000     0.358575000000     0          
O        O      0.959800000000     0.078200000000     0.377775000000     0          
O        O      0.880300000000     0.080150000000     0.369000000000     0          
O        O      0.727000000000     0.060400000000     0.384400000000     0          
O        O      0.800600000000     0.089150000000     0.366025000000     0          
O        O      0.845800000000     0.160600000000     0.386350000000     0          
T        Si     0.917600000000     0.053200000000     0.389825000000     0          
T        Si     0.774900000000     0.051150000000     0.390825000000     0          
T        Si     0.813100000000     0.201900000000     0.391225000000     0          
T        Si     0.843400000000     0.114950000000     0.266425000000     0          
O        O      0.040200000000     0.421800000000     0.252775000000     0          
O        O      0.119700000000     0.419850000000     0.494000000000     0          
O        O      0.273000000000     0.439600000000     0.259400000000     0          
O        O      0.199400000000     0.410850000000     0.491025000000     0          
O        O      0.154200000000     0.339400000000     0.261350000000     0          
T        Si     0.082400000000     0.446800000000     0.264825000000     0          
T        Si     0.225100000000     0.448850000000     0.265825000000     0          
T        Si     0.186900000000     0.298100000000     0.266225000000     0          
T        Si     0.156600000000     0.385050000000     0.391425000000     0          
O        O      0.588000000000     0.304750000000     0.437500000000     0          
O        O      0.540200000000     0.328200000000     0.377775000000     0          
O        O      0.581600000000     0.250000000000     0.375000000000     0          
O        O      0.619700000000     0.330150000000     0.369000000000     0          
O        O      0.714100000000     0.305350000000     0.437500000000     0          
O        O      0.773000000000     0.310400000000     0.384400000000     0          
O        O      0.713600000000     0.250000000000     0.375000000000     0          
O        O      0.699400000000     0.339150000000     0.366025000000     0          
O        O      0.699100000000     0.457550000000     0.437500000000     0          
O        O      0.668000000000     0.000000000000     0.375000000000     0          
O        O      0.654200000000     0.410600000000     0.386350000000     0          
O        O      0.653400000000     0.380450000000     0.312500000000     0          
O        O      0.500000000000     0.194400000000     0.437500000000     0          
O        O      0.500000000000     0.250000000000     0.375000000000     0          
T        Si     0.582400000000     0.303200000000     0.389825000000     0          
T        Si     0.725100000000     0.301150000000     0.390825000000     0          
T        Si     0.686900000000     0.451900000000     0.391225000000     0          
T        Si     0.656600000000     0.364950000000     0.266425000000     0          
T        Si     0.500000000000     0.196750000000     0.389575000000     0          
O        O      0.412000000000     0.195250000000     0.312500000000     0          
O        O      0.459800000000     0.171800000000     0.252775000000     0          
O        O      0.418400000000     0.250000000000     0.250000000000     0          
O        O      0.380300000000     0.169850000000     0.494000000000     0          
O        O      0.285900000000     0.194650000000     0.312500000000     0          
O        O      0.227000000000     0.189600000000     0.259400000000     0          
O        O      0.286400000000     0.250000000000     0.250000000000     0          
O        O      0.300600000000     0.160850000000     0.491025000000     0          
O        O      0.300900000000     0.042450000000     0.312500000000     0          
O        O      0.332000000000     0.000000000000     0.250000000000     0          
O        O      0.345800000000     0.089400000000     0.261350000000     0          
O        O      0.346600000000     0.119550000000     0.437500000000     0          
O        O      0.500000000000     0.305600000000     0.312500000000     0          
O        O      0.500000000000     0.250000000000     0.250000000000     0          
T        Si     0.417600000000     0.196800000000     0.264825000000     0          
T        Si     0.274900000000     0.198850000000     0.265825000000     0          
T        Si     0.313100000000     0.048100000000     0.266225000000     0          
T        Si     0.343400000000     0.135050000000     0.391425000000     0          
T        Si     0.500000000000     0.303250000000     0.264575000000     0          
O        O      0.588000000000     0.195250000000     0.312500000000     0          
O        O      0.540200000000     0.171800000000     0.372225000000     0          
O        O      0.619700000000     0.169850000000     0.381000000000     0          
O        O      0.714100000000     0.194650000000     0.312500000000     0          
O        O      0.773000000000     0.189600000000     0.365600000000     0          
O        O      0.699400000000     0.160850000000     0.383975000000     0          
O        O      0.699100000000     0.042450000000     0.312500000000     0          
O        O      0.654200000000     0.089400000000     0.363650000000     0          
O        O      0.653400000000     0.119550000000     0.437500000000     0          
T        Si     0.582400000000     0.196800000000     0.360175000000     0          
T        Si     0.725100000000     0.198850000000     0.359175000000     0          
T        Si     0.686900000000     0.048100000000     0.358775000000     0          
T        Si     0.656600000000     0.135050000000     0.483575000000     0          
T        Si     0.500000000000     0.303250000000     0.360425000000     0          
O        O      0.412000000000     0.304750000000     0.437500000000     0          
O        O      0.459800000000     0.328200000000     0.497225000000     0          
O        O      0.380300000000     0.330150000000     0.256000000000     0          
O        O      0.285900000000     0.305350000000     0.437500000000     0          
O        O      0.227000000000     0.310400000000     0.490600000000     0          
O        O      0.300600000000     0.339150000000     0.258975000000     0          
O        O      0.300900000000     0.457550000000     0.437500000000     0          
O        O      0.345800000000     0.410600000000     0.488650000000     0          
O        O      0.346600000000     0.380450000000     0.312500000000     0          
T        Si     0.417600000000     0.303200000000     0.485175000000     0          
T        Si     0.274900000000     0.301150000000     0.484175000000     0          
T        Si     0.313100000000     0.451900000000     0.483775000000     0          
T        Si     0.343400000000     0.364950000000     0.358575000000     0          
T        Si     0.500000000000     0.196750000000     0.485425000000     0          
O        O      0.459800000000     0.171800000000     0.372225000000     0          
O        O      0.418400000000     0.250000000000     0.375000000000     0          
O        O      0.380300000000     0.169850000000     0.381000000000     0          
O        O      0.227000000000     0.189600000000     0.365600000000     0          
O        O      0.286400000000     0.250000000000     0.375000000000     0          
O        O      0.300600000000     0.160850000000     0.383975000000     0          
O        O      0.332000000000     0.000000000000     0.375000000000     0          
O        O      0.345800000000     0.089400000000     0.363650000000     0          
T        Si     0.417600000000     0.196800000000     0.360175000000     0          
T        Si     0.274900000000     0.198850000000     0.359175000000     0          
T        Si     0.313100000000     0.048100000000     0.358775000000     0          
T        Si     0.343400000000     0.135050000000     0.483575000000     0          
O        O      0.540200000000     0.328200000000     0.497225000000     0          
O        O      0.581600000000     0.250000000000     0.250000000000     0          
O        O      0.619700000000     0.330150000000     0.256000000000     0          
O        O      0.773000000000     0.310400000000     0.490600000000     0          
O        O      0.713600000000     0.250000000000     0.250000000000     0          
O        O      0.699400000000     0.339150000000     0.258975000000     0          
O        O      0.668000000000     0.000000000000     0.250000000000     0          
O        O      0.654200000000     0.410600000000     0.488650000000     0          
T        Si     0.582400000000     0.303200000000     0.485175000000     0          
T        Si     0.725100000000     0.301150000000     0.484175000000     0          
T        Si     0.686900000000     0.451900000000     0.483775000000     0          
T        Si     0.656600000000     0.364950000000     0.358575000000     0          
O        O      0.459800000000     0.328200000000     0.377775000000     0          
O        O      0.380300000000     0.330150000000     0.369000000000     0          
O        O      0.227000000000     0.310400000000     0.384400000000     0          
O        O      0.300600000000     0.339150000000     0.366025000000     0          
O        O      0.345800000000     0.410600000000     0.386350000000     0          
T        Si     0.417600000000     0.303200000000     0.389825000000     0          
T        Si     0.274900000000     0.301150000000     0.390825000000     0          
T        Si     0.313100000000     0.451900000000     0.391225000000     0          
T        Si     0.343400000000     0.364950000000     0.266425000000     0          
O        O      0.540200000000     0.171800000000     0.252775000000     0          
O        O      0.619700000000     0.169850000000     0.494000000000     0          
O        O      0.773000000000     0.189600000000     0.259400000000     0          
O        O      0.699400000000     0.160850000000     0.491025000000     0          
O        O      0.654200000000     0.089400000000     0.261350000000     0          
T        Si     0.582400000000     0.196800000000     0.264825000000     0          
T        Si     0.725100000000     0.198850000000     0.265825000000     0          
T        Si     0.686900000000     0.048100000000     0.266225000000     0          
T        Si     0.656600000000     0.135050000000     0.391425000000     0          
O        O      0.088000000000     0.054750000000     0.687500000000     0          
O        O      0.040200000000     0.078200000000     0.627775000000     0          
O        O      0.081600000000     0.000000000000     0.625000000000     0          
O        O      0.119700000000     0.080150000000     0.619000000000     0          
O        O      0.214100000000     0.055350000000     0.687500000000     0          
O        O      0.273000000000     0.060400000000     0.634400000000     0          
O        O      0.213600000000     0.000000000000     0.625000000000     0          
O        O      0.199400000000     0.089150000000     0.616025000000     0          
O        O      0.199100000000     0.207550000000     0.687500000000     0          
O        O      0.168000000000     0.250000000000     0.625000000000     0          
O        O      0.154200000000     0.160600000000     0.636350000000     0          
O        O      0.153400000000     0.130450000000     0.562500000000     0          
O        O      0.000000000000     0.444400000000     0.687500000000     0          
O        O      0.000000000000     0.000000000000     0.625000000000     0          
T        Si     0.082400000000     0.053200000000     0.639825000000     0          
T        Si     0.225100000000     0.051150000000     0.640825000000     0          
T        Si     0.186900000000     0.201900000000     0.641225000000     0          
T        Si     0.156600000000     0.114950000000     0.516425000000     0          
T        Si     0.000000000000     0.446750000000     0.639575000000     0          
O        O      0.912000000000     0.445250000000     0.562500000000     0          
O        O      0.959800000000     0.421800000000     0.502775000000     0          
O        O      0.918400000000     0.000000000000     0.500000000000     0          
O        O      0.880300000000     0.419850000000     0.744000000000     0          
O        O      0.785900000000     0.444650000000     0.562500000000     0          
O        O      0.727000000000     0.439600000000     0.509400000000     0          
O        O      0.786400000000     0.000000000000     0.500000000000     0          
O        O      0.800600000000     0.410850000000     0.741025000000     0          
O        O      0.800900000000     0.292450000000     0.562500000000     0          
O        O      0.832000000000     0.250000000000     0.500000000000     0          
O        O      0.845800000000     0.339400000000     0.511350000000     0          
O        O      0.846600000000     0.369550000000     0.687500000000     0          
O        O      0.000000000000     0.055600000000     0.562500000000     0          
O        O      0.000000000000     0.000000000000     0.500000000000     0          
T        Si     0.917600000000     0.446800000000     0.514825000000     0          
T        Si     0.774900000000     0.448850000000     0.515825000000     0          
T        Si     0.813100000000     0.298100000000     0.516225000000     0          
T        Si     0.843400000000     0.385050000000     0.641425000000     0          
T        Si     0.000000000000     0.053250000000     0.514575000000     0          
O        O      0.088000000000     0.445250000000     0.562500000000     0          
O        O      0.040200000000     0.421800000000     0.622225000000     0          
O        O      0.119700000000     0.419850000000     0.631000000000     0          
O        O      0.214100000000     0.444650000000     0.562500000000     0          
O        O      0.273000000000     0.439600000000     0.615600000000     0          
O        O      0.199400000000     0.410850000000     0.633975000000     0          
O        O      0.199100000000     0.292450000000     0.562500000000     0          
O        O      0.154200000000     0.339400000000     0.613650000000     0          
O        O      0.153400000000     0.369550000000     0.687500000000     0          
T        Si     0.082400000000     0.446800000000     0.610175000000     0          
T        Si     0.225100000000     0.448850000000     0.609175000000     0          
T        Si     0.186900000000     0.298100000000     0.608775000000     0          
T        Si     0.156600000000     0.385050000000     0.733575000000     0          
T        Si     0.000000000000     0.053250000000     0.610425000000     0          
O        O      0.912000000000     0.054750000000     0.687500000000     0          
O        O      0.959800000000     0.078200000000     0.747225000000     0          
O        O      0.880300000000     0.080150000000     0.506000000000     0          
O        O      0.785900000000     0.055350000000     0.687500000000     0          
O        O      0.727000000000     0.060400000000     0.740600000000     0          
O        O      0.800600000000     0.089150000000     0.508975000000     0          
O        O      0.800900000000     0.207550000000     0.687500000000     0          
O        O      0.845800000000     0.160600000000     0.738650000000     0          
O        O      0.846600000000     0.130450000000     0.562500000000     0          
T        Si     0.917600000000     0.053200000000     0.735175000000     0          
T        Si     0.774900000000     0.051150000000     0.734175000000     0          
T        Si     0.813100000000     0.201900000000     0.733775000000     0          
T        Si     0.843400000000     0.114950000000     0.608575000000     0          
T        Si     0.000000000000     0.446750000000     0.735425000000     0          
O        O      0.959800000000     0.421800000000     0.622225000000     0          
O        O      0.918400000000     0.000000000000     0.625000000000     0          
O        O      0.880300000000     0.419850000000     0.631000000000     0          
O        O      0.727000000000     0.439600000000     0.615600000000     0          
O        O      0.786400000000     0.000000000000     0.625000000000     0          
O        O      0.800600000000     0.410850000000     0.633975000000     0          
O        O      0.832000000000     0.250000000000     0.625000000000     0          
O        O      0.845800000000     0.339400000000     0.613650000000     0          
T        Si     0.917600000000     0.446800000000     0.610175000000     0          
T        Si     0.774900000000     0.448850000000     0.609175000000     0          
T        Si     0.813100000000     0.298100000000     0.608775000000     0          
T        Si     0.843400000000     0.385050000000     0.733575000000     0          
O        O      0.040200000000     0.078200000000     0.747225000000     0          
O        O      0.081600000000     0.000000000000     0.500000000000     0          
O        O      0.119700000000     0.080150000000     0.506000000000     0          
O        O      0.273000000000     0.060400000000     0.740600000000     0          
O        O      0.213600000000     0.000000000000     0.500000000000     0          
O        O      0.199400000000     0.089150000000     0.508975000000     0          
O        O      0.168000000000     0.250000000000     0.500000000000     0          
O        O      0.154200000000     0.160600000000     0.738650000000     0          
T        Si     0.082400000000     0.053200000000     0.735175000000     0          
T        Si     0.225100000000     0.051150000000     0.734175000000     0          
T        Si     0.186900000000     0.201900000000     0.733775000000     0          
T        Si     0.156600000000     0.114950000000     0.608575000000     0          
O        O      0.959800000000     0.078200000000     0.627775000000     0          
O        O      0.880300000000     0.080150000000     0.619000000000     0          
O        O      0.727000000000     0.060400000000     0.634400000000     0          
O        O      0.800600000000     0.089150000000     0.616025000000     0          
O        O      0.845800000000     0.160600000000     0.636350000000     0          
T        Si     0.917600000000     0.053200000000     0.639825000000     0          
T        Si     0.774900000000     0.051150000000     0.640825000000     0          
T        Si     0.813100000000     0.201900000000     0.641225000000     0          
T        Si     0.843400000000     0.114950000000     0.516425000000     0          
O        O      0.040200000000     0.421800000000     0.502775000000     0          
O        O      0.119700000000     0.419850000000     0.744000000000     0          
O        O      0.273000000000     0.439600000000     0.509400000000     0          
O        O      0.199400000000     0.410850000000     0.741025000000     0          
O        O      0.154200000000     0.339400000000     0.511350000000     0          
T        Si     0.082400000000     0.446800000000     0.514825000000     0          
T        Si     0.225100000000     0.448850000000     0.515825000000     0          
T        Si     0.186900000000     0.298100000000     0.516225000000     0          
T        Si     0.156600000000     0.385050000000     0.641425000000     0          
O        O      0.588000000000     0.304750000000     0.687500000000     0          
O        O      0.540200000000     0.328200000000     0.627775000000     0          
O        O      0.581600000000     0.250000000000     0.625000000000     0          
O        O      0.619700000000     0.330150000000     0.619000000000     0          
O        O      0.714100000000     0.305350000000     0.687500000000     0          
O        O      0.773000000000     0.310400000000     0.634400000000     0          
O        O      0.713600000000     0.250000000000     0.625000000000     0          
O        O      0.699400000000     0.339150000000     0.616025000000     0          
O        O      0.699100000000     0.457550000000     0.687500000000     0          
O        O      0.668000000000     0.000000000000     0.625000000000     0          
O        O      0.654200000000     0.410600000000     0.636350000000     0          
O        O      0.653400000000     0.380450000000     0.562500000000     0          
O        O      0.500000000000     0.194400000000     0.687500000000     0          
O        O      0.500000000000     0.250000000000     0.625000000000     0          
T        Si     0.582400000000     0.303200000000     0.639825000000     0          
T        Si     0.725100000000     0.301150000000     0.640825000000     0          
T        Si     0.686900000000     0.451900000000     0.641225000000     0          
T        Si     0.656600000000     0.364950000000     0.516425000000     0          
T        Si     0.500000000000     0.196750000000     0.639575000000     0          
O        O      0.412000000000     0.195250000000     0.562500000000     0          
O        O      0.459800000000     0.171800000000     0.502775000000     0          
O        O      0.418400000000     0.250000000000     0.500000000000     0          
O        O      0.380300000000     0.169850000000     0.744000000000     0          
O        O      0.285900000000     0.194650000000     0.562500000000     0          
O        O      0.227000000000     0.189600000000     0.509400000000     0          
O        O      0.286400000000     0.250000000000     0.500000000000     0          
O        O      0.300600000000     0.160850000000     0.741025000000     0          
O        O      0.300900000000     0.042450000000     0.562500000000     0          
O        O      0.332000000000     0.000000000000     0.500000000000     0          
O        O      0.345800000000     0.089400000000     0.511350000000     0          
O        O      0.346600000000     0.119550000000     0.687500000000     0          
O        O      0.500000000000     0.305600000000     0.562500000000     0          
O        O      0.500000000000     0.250000000000     0.500000000000     0          
T        Si     0.417600000000     0.196800000000     0.514825000000     0          
T        Si     0.274900000000     0.198850000000     0.515825000000     0          
T        Si     0.313100000000     0.048100000000     0.516225000000     0          
T        Si     0.343400000000     0.135050000000     0.641425000000     0          
T        Si     0.500000000000     0.303250000000     0.514575000000     0          
O        O      0.588000000000     0.195250000000     0.562500000000     0          
O        O      0.540200000000     0.171800000000     0.622225000000     0          
O        O      0.619700000000     0.169850000000     0.631000000000     0          
O        O      0.714100000000     0.194650000000     0.562500000000     0          
O        O      0.773000000000     0.189600000000     0.615600000000     0          
O        O      0.699400000000     0.160850000000     0.633975000000     0          
O        O      0.699100000000     0.042450000000     0.562500000000     0          
O        O      0.654200000000     0.089400000000     0.613650000000     0          
O        O      0.653400000000     0.119550000000     0.687500000000     0          
T        Si     0.582400000000     0.196800000000     0.610175000000     0          
T        Si     0.725100000000     0.198850000000     0.609175000000     0          
T        Si     0.686900000000     0.048100000000     0.608775000000     0          
T        Si     0.656600000000     0.135050000000     0.733575000000     0          
T        Si     0.500000000000     0.303250000000     0.610425000000     0          
O        O      0.412000000000     0.304750000000     0.687500000000     0          
O        O      0.459800000000     0.328200000000     0.747225000000     0          
O        O      0.380300000000     0.330150000000     0.506000000000     0          
O        O      0.285900000000     0.305350000000     0.687500000000     0          
O        O      0.227000000000     0.310400000000     0.740600000000     0          
O        O      0.300600000000     0.339150000000     0.508975000000     0          
O        O      0.300900000000     0.457550000000     0.687500000000     0          
O        O      0.345800000000     0.410600000000     0.738650000000     0          
O        O      0.346600000000     0.380450000000     0.562500000000     0          
T        Si     0.417600000000     0.303200000000     0.735175000000     0          
T        Si     0.274900000000     0.301150000000     0.734175000000     0          
T        Si     0.313100000000     0.451900000000     0.733775000000     0          
T        Si     0.343400000000     0.364950000000     0.608575000000     0          
T        Si     0.500000000000     0.196750000000     0.735425000000     0          
O        O      0.459800000000     0.171800000000     0.622225000000     0          
O        O      0.418400000000     0.250000000000     0.625000000000     0          
O        O      0.380300000000     0.169850000000     0.631000000000     0          
O        O      0.227000000000     0.189600000000     0.615600000000     0          
O        O      0.286400000000     0.250000000000     0.625000000000     0          
O        O      0.300600000000     0.160850000000     0.633975000000     0          
O        O      0.332000000000     0.000000000000     0.625000000000     0          
O        O      0.345800000000     0.089400000000     0.613650000000     0          
T        Si     0.417600000000     0.196800000000     0.610175000000     0          
T        Si     0.274900000000     0.198850000000     0.609175000000     0          
T        Si     0.313100000000     0.048100000000     0.608775000000     0          
T        Si     0.343400000000     0.135050000000     0.733575000000     0          
O        O      0.540200000000     0.328200000000     0.747225000000     0          
O        O      0.581600000000     0.250000000000     0.500000000000     0          
O        O      0.619700000000     0.330150000000     0.506000000000     0          
O        O      0.773000000000     0.310400000000     0.740600000000     0          
O        O      0.713600000000     0.250000000000     0.500000000000     0          
O        O      0.699400000000     0.339150000000     0.508975000000     0          
O        O      0.668000000000     0.000000000000     0.500000000000     0          
O        O      0.654200000000     0.410600000000     0.738650000000     0          
T        Si     0.582400000000     0.303200000000     0.735175000000     0          
T        Si     0.725100000000     0.301150000000     0.734175000000     0          
T        Si     0.686900000000     0.451900000000     0.733775000000     0          
T        Si     0.656600000000     0.364950000000     0.608575000000     0          
O        O      0.459800000000     0.328200000000     0.627775000000     0          
O        O      0.380300000000     0.330150000000     0.619000000000     0          
O        O      0.227000000000     0.310400000000     0.634400000000     0          
O        O      0.300600000000     0.339150000000     0.616025000000     0          
O        O      0.345800000000     0.410600000000     0.636350000000     0          
T        Si     0.417600000000     0.303200000000     0.639825000000     0          
T        Si     0.274900000000     0.301150000000     0.640825000000     0          
T        Si     0.313100000000     0.451900000000     0.641225000000     0          
T        Si     0.343400000000     0.364950000000     0.516425000000     0          
O        O      0.540200000000     0.171800000000     0.502775000000     0          
O        O      0.619700000000     0.169850000000     0.744000000000     0          
O        O      0.773000000000     0.189600000000     0.509400000000     0          
O        O      0.699400000000     0.160850000000     0.741025000000     0          
O        O      0.654200000000     0.089400000000     0.511350000000     0          
T        Si     0.582400000000     0.196800000000     0.514825000000     0          
T        Si     0.725100000000     0.198850000000     0.515825000000     0          
T        Si     0.686900000000     0.048100000000     0.516225000000     0          
T        Si     0.656600000000     0.135050000000     0.641425000000     0          
O        O      0.088000000000     0.054750000000     0.937500000000     0          
O        O      0.040200000000     0.078200000000     0.877775000000     0          
O        O      0.081600000000     0.000000000000     0.875000000000     0          
O        O      0.119700000000     0.080150000000     0.869000000000     0          
O        O      0.214100000000     0.055350000000     0.937500000000     0          
O        O      0.273000000000     0.060400000000     0.884400000000     0          
O        O      0.213600000000     0.000000000000     0.875000000000     0          
O        O      0.199400000000     0.089150000000     0.866025000000     0          
O        O      0.199100000000     0.207550000000     0.937500000000     0          
O        O      0.168000000000     0.250000000000     0.875000000000     0          
O        O      0.154200000000     0.160600000000     0.886350000000     0          
O        O      0.153400000000     0.130450000000     0.812500000000     0          
O        O      0.000000000000     0.444400000000     0.937500000000     0          
O        O      0.000000000000     0.000000000000     0.875000000000     0          
T        Si     0.082400000000     0.053200000000     0.889825000000     0          
T        Si     0.225100000000     0.051150000000     0.890825000000     0          
T        Si     0.186900000000     0.201900000000     0.891225000000     0          
T        Si     0.156600000000     0.114950000000     0.766425000000     0          
T        Si     0.000000000000     0.446750000000     0.889575000000     0          
O        O      0.912000000000     0.445250000000     0.812500000000     0          
O        O      0.959800000000     0.421800000000     0.752775000000     0          
O        O      0.918400000000     0.000000000000     0.750000000000     0          
O        O      0.880300000000     0.419850000000     0.994000000000     0          
O        O      0.785900000000     0.444650000000     0.812500000000     0          
O        O      0.727000000000     0.439600000000     0.759400000000     0          
O        O      0.786400000000     0.000000000000     0.750000000000     0          
O        O      0.800600000000     0.410850000000     0.991025000000     0          
O        O      0.800900000000     0.292450000000     0.812500000000     0          
O        O      0.832000000000     0.250000000000     0.750000000000     0          
O        O      0.845800000000     0.339400000000     0.761350000000     0          
O        O      0.846600000000     0.369550000000     0.937500000000     0          
O        O      0.000000000000     0.055600000000     0.812500000000     0          
O        O      0.000000000000     0.000000000000     0.750000000000     0          
T        Si     0.917600000000     0.446800000000     0.764825000000     0          
T        Si     0.774900000000     0.448850000000     0.765825000000     0          
T        Si     0.813100000000     0.298100000000     0.766225000000     0          
T        Si     0.843400000000     0.385050000000     0.891425000000     0          
T        Si     0.000000000000     0.053250000000     0.764575000000     0          
O        O      0.088000000000     0.445250000000     0.812500000000     0          
O        O      0.040200000000     0.421800000000     0.872225000000     0          
O        O      0.119700000000     0.419850000000     0.881000000000     0          
O        O      0.214100000000     0.444650000000     0.812500000000     0          
O        O      0.273000000000     0.439600000000     0.865600000000     0          
O        O      0.199400000000     0.410850000000     0.883975000000     0          
O        O      0.199100000000     0.292450000000     0.812500000000     0          
O        O      0.154200000000     0.339400000000     0.863650000000     0          
O        O      0.153400000000     0.369550000000     0.937500000000     0          
T        Si     0.082400000000     0.446800000000     0.860175000000     0          
T        Si     0.225100000000     0.448850000000     0.859175000000     0          
T        Si     0.186900000000     0.298100000000     0.858775000000     0          
T        Si     0.156600000000     0.385050000000     0.983575000000     0          
T        Si     0.000000000000     0.053250000000     0.860425000000     0          
O        O      0.912000000000     0.054750000000     0.937500000000     0          
O        O      0.959800000000     0.078200000000     0.997225000000     0          
O        O      0.880300000000     0.080150000000     0.756000000000     0          
O        O      0.785900000000     0.055350000000     0.937500000000     0          
O        O      0.727000000000     0.060400000000     0.990600000000     0          
O        O      0.800600000000     0.089150000000     0.758975000000     0          
O        O      0.800900000000     0.207550000000     0.937500000000     0          
O        O      0.845800000000     0.160600000000     0.988650000000     0          
O        O      0.846600000000     0.130450000000     0.812500000000     0          
T        Si     0.917600000000     0.053200000000     0.985175000000     0          
T        Si     0.774900000000     0.051150000000     0.984175000000     0          
T        Si     0.813100000000     0.201900000000     0.983775000000     0          
T        Si     0.843400000000     0.114950000000     0.858575000000     0          
T        Si     0.000000000000     0.446750000000     0.985425000000     0          
O        O      0.959800000000     0.421800000000     0.872225000000     0          
O        O      0.918400000000     0.000000000000     0.875000000000     0          
O        O      0.880300000000     0.419850000000     0.881000000000     0          
O        O      0.727000000000     0.439600000000     0.865600000000     0          
O        O      0.786400000000     0.000000000000     0.875000000000     0          
O        O      0.800600000000     0.410850000000     0.883975000000     0          
O        O      0.832000000000     0.250000000000     0.875000000000     0          
O        O      0.845800000000     0.339400000000     0.863650000000     0          
T        Si     0.917600000000     0.446800000000     0.860175000000     0          
T        Si     0.774900000000     0.448850000000     0.859175000000     0          
T        Si     0.813100000000     0.298100000000     0.858775000000     0          
T        Si     0.843400000000     0.385050000000     0.983575000000     0          
O        O      0.040200000000     0.078200000000     0.997225000000     0          
O        O      0.081600000000     0.000000000000     0.750000000000     0          
O        O      0.119700000000     0.080150000000     0.756000000000     0          
O        O      0.273000000000     0.060400000000     0.990600000000     0          
O        O      0.213600000000     0.000000000000     0.750000000000     0          
O        O      0.199400000000     0.089150000000     0.758975000000     0          
O        O      0.168000000000     0.250000000000     0.750000000000     0          
O        O      0.154200000000     0.160600000000     0.988650000000     0          
T        Si     0.082400000000     0.053200000000     0.985175000000     0          
T        Si     0.225100000000     0.051150000000     0.984175000000     0          
T        Si     0.186900000000     0.201900000000     0.983775000000     0          
T        Si     0.156600000000     0.114950000000     0.858575000000     0          
O        O      0.959800000000     0.078200000000     0.877775000000     0          
O        O      0.880300000000     0.080150000000     0.869000000000     0          
O        O      0.727000000000     0.060400000000     0.884400000000     0          
O        O      0.800600000000     0.089150000000     0.866025000000     0          
O        O      0.845800000000     0.160600000000     0.886350000000     0          
T        Si     0.917600000000     0.053200000000     0.889825000000     0          
T        Si     0.774900000000     0.051150000000     0.890825000000     0          
T        Si     0.813100000000     0.201900000000     0.891225000000     0          
T        Si     0.843400000000     0.114950000000     0.766425000000     0          
O        O      0.040200000000     0.421800000000     0.752775000000     0          
O        O      0.119700000000     0.419850000000     0.994000000000     0          
O        O      0.273000000000     0.439600000000     0.759400000000     0          
O        O      0.199400000000     0.410850000000     0.991025000000     0          
O        O      0.154200000000     0.339400000000     0.761350000000     0          
T        Si     0.082400000000     0.446800000000     0.764825000000     0          
T        Si     0.225100000000     0.448850000000     0.765825000000     0          
T        Si     0.186900000000     0.298100000000     0.766225000000     0          
T        Si     0.156600000000     0.385050000000     0.891425000000     0          
O        O      0.588000000000     0.304750000000     0.937500000000     0          
O        O      0.540200000000     0.328200000000     0.877775000000     0          
O        O      0.581600000000     0.250000000000     0.875000000000     0          
O        O      0.619700000000     0.330150000000     0.869000000000     0          
O        O      0.714100000000     0.305350000000     0.937500000000     0          
O        O      0.773000000000     0.310400000000     0.884400000000     0          
O        O      0.713600000000     0.250000000000     0.875000000000     0          
O        O      0.699400000000     0.339150000000     0.866025000000     0          
O        O      0.699100000000     0.457550000000     0.937500000000     0          
O        O      0.668000000000     0.000000000000     0.875000000000     0          
O        O      0.654200000000     0.410600000000     0.886350000000     0          
O        O      0.653400000000     0.380450000000     0.812500000000     0          
O        O      0.500000000000     0.194400000000     0.937500000000     0          
O        O      0.500000000000     0.250000000000     0.875000000000     0          
T        Si     0.582400000000     0.303200000000     0.889825000000     0          
T        Si     0.725100000000     0.301150000000     0.890825000000     0          
T        Si     0.686900000000     0.451900000000     0.891225000000     0          
T        Si     0.656600000000     0.364950000000     0.766425000000     0          
T        Si     0.500000000000     0.196750000000     0.889575000000     0          
O        O      0.412000000000     0.195250000000     0.812500000000     0          
O        O      0.459800000000     0.171800000000     0.752775000000     0          
O        O      0.418400000000     0.250000000000     0.750000000000     0          
O        O      0.380300000000     0.169850000000     0.994000000000     0          
O        O      0.285900000000     0.194650000000     0.812500000000     0          
O        O      0.227000000000     0.189600000000     0.759400000000     0          
O        O      0.286400000000     0.250000000000     0.750000000000     0          
O        O      0.300600000000     0.160850000000     0.991025000000     0          
O        O      0.300900000000     0.042450000000     0.812500000000     0          
O        O      0.332000000000     0.000000000000     0.750000000000     0          
O        O      0.345800000000     0.089400000000     0.761350000000     0          
O        O      0.346600000000     0.119550000000     0.937500000000     0          
O        O      0.500000000000     0.305600000000     0.812500000000     0          
O        O      0.500000000000     0.250000000000     0.750000000000     0          
T        Si     0.417600000000     0.196800000000     0.764825000000     0          
T        Si     0.274900000000     0.198850000000     0.765825000000     0          
T        Si     0.313100000000     0.048100000000     0.766225000000     0          
T        Si     0.343400000000     0.135050000000     0.891425000000     0          
T        Si     0.500000000000     0.303250000000     0.764575000000     0          
O        O      0.588000000000     0.195250000000     0.812500000000     0          
O        O      0.540200000000     0.171800000000     0.872225000000     0          
O        O      0.619700000000     0.169850000000     0.881000000000     0          
O        O      0.714100000000     0.194650000000     0.812500000000     0          
O        O      0.773000000000     0.189600000000     0.865600000000     0          
O        O      0.699400000000     0.160850000000     0.883975000000     0          
O        O      0.699100000000     0.042450000000     0.812500000000     0          
O        O      0.654200000000     0.089400000000     0.863650000000     0          
O        O      0.653400000000     0.119550000000     0.937500000000     0          
T        Si     0.582400000000     0.196800000000     0.860175000000     0          
T        Si     0.725100000000     0.198850000000     0.859175000000     0          
T        Si     0.686900000000     0.048100000000     0.858775000000     0          
T        Si     0.656600000000     0.135050000000     0.983575000000     0          
T        Si     0.500000000000     0.303250000000     0.860425000000     0          
O        O      0.412000000000     0.304750000000     0.937500000000     0          
O        O      0.459800000000     0.328200000000     0.997225000000     0          
O        O      0.380300000000     0.330150000000     0.756000000000     0          
O        O      0.285900000000     0.305350000000     0.937500000000     0          
O        O      0.227000000000     0.310400000000     0.990600000000     0          
O        O      0.300600000000     0.339150000000     0.758975000000     0          
O        O      0.300900000000     0.457550000000     0.937500000000     0          
O        O      0.345800000000     0.410600000000     0.988650000000     0          
O        O      0.346600000000     0.380450000000     0.812500000000     0          
T        Si     0.417600000000     0.303200000000     0.985175000000     0          
T        Si     0.274900000000     0.301150000000     0.984175000000     0          
T        Si     0.313100000000     0.451900000000     0.983775000000     0          
T        Si     0.343400000000     0.364950000000     0.858575000000     0          
T        Si     0.500000000000     0.196750000000     0.985425000000     0          
O        O      0.459800000000     0.171800000000     0.872225000000     0          
O        O      0.418400000000     0.250000000000     0.875000000000     0          
O        O      0.380300000000     0.169850000000     0.881000000000     0          
O        O      0.227000000000     0.189600000000     0.865600000000     0          
O        O      0.286400000000     0.250000000000     0.875000000000     0          
O        O      0.300600000000     0.160850000000     0.883975000000     0          
O        O      0.332000000000     0.000000000000     0.875000000000     0          
O        O      0.345800000000     0.089400000000     0.863650000000     0          
T        Si     0.417600000000     0.196800000000     0.860175000000     0          
T        Si     0.274900000000     0.198850000000     0.859175000000     0          
T        Si     0.313100000000     0.048100000000     0.858775000000     0          
T        Si     0.343400000000     0.135050000000     0.983575000000     0          
O        O      0.540200000000     0.328200000000     0.997225000000     0          
O        O      0.581600000000     0.250000000000     0.750000000000     0          
O        O      0.619700000000     0.330150000000     0.756000000000     0          
O        O      0.773000000000     0.310400000000     0.990600000000     0          
O        O      0.713600000000     0.250000000000     0.750000000000     0          
O        O      0.699400000000     0.339150000000     0.758975000000     0          
O        O      0.668000000000     0.000000000000     0.750000000000     0          
O        O      0.654200000000     0.410600000000     0.988650000000     0          
T        Si     0.582400000000     0.303200000000     0.985175000000     0          
T        Si     0.725100000000     0.301150000000     0.984175000000     0          
T        Si     0.686900000000     0.451900000000     0.983775000000     0          
T        Si     0.656600000000     0.364950000000     0.858575000000     0          
O        O      0.459800000000     0.328200000000     0.877775000000     0          
O        O      0.380300000000     0.330150000000     0.869000000000     0          
O        O      0.227000000000     0.310400000000     0.884400000000     0          
O        O      0.300600000000     0.339150000000     0.866025000000     0          
O        O      0.345800000000     0.410600000000     0.886350000000     0          
T        Si     0.417600000000     0.303200000000     0.889825000000     0          
T        Si     0.274900000000     0.301150000000     0.890825000000     0          
T        Si     0.313100000000     0.451900000000     0.891225000000     0          
T        Si     0.343400000000     0.364950000000     0.766425000000     0          
O        O      0.540200000000     0.171800000000     0.752775000000     0          
O        O      0.619700000000     0.169850000000     0.994000000000     0          
O        O      0.773000000000     0.189600000000     0.759400000000     0          
O        O      0.699400000000     0.160850000000     0.991025000000     0          
O        O      0.654200000000     0.089400000000     0.761350000000     0          
T        Si     0.582400000000     0.196800000000     0.764825000000     0          
T        Si     0.725100000000     0.198850000000     0.765825000000     0          
T        Si     0.686900000000     0.048100000000     0.766225000000     0          
T        Si     0.656600000000     0.135050000000     0.891425000000     0          
O        O      0.088000000000     0.554750000000     0.187500000000     0          
O        O      0.040200000000     0.578200000000     0.127775000000     0          
O        O      0.081600000000     0.500000000000     0.125000000000     0          
O        O      0.119700000000     0.580150000000     0.119000000000     0          
O        O      0.214100000000     0.555350000000     0.187500000000     0          
O        O      0.273000000000     0.560400000000     0.134400000000     0          
O        O      0.213600000000     0.500000000000     0.125000000000     0          
O        O      0.199400000000     0.589150000000     0.116025000000     0          
O        O      0.199100000000     0.707550000000     0.187500000000     0          
O        O      0.168000000000     0.750000000000     0.125000000000     0          
O        O      0.154200000000     0.660600000000     0.136350000000     0          
O        O      0.153400000000     0.630450000000     0.062500000000     0          
O        O      0.000000000000     0.944400000000     0.187500000000     0          
O        O      0.000000000000     0.500000000000     0.125000000000     0          
T        Si     0.082400000000     0.553200000000     0.139825000000     0          
T        Si     0.225100000000     0.551150000000     0.140825000000     0          
T        Si     0.186900000000     0.701900000000     0.141225000000     0          
T        Si     0.156600000000     0.614950000000     0.016425000000     0          
T        Si     0.000000000000     0.946750000000     0.139575000000     0          
O        O      0.912000000000     0.945250000000     0.062500000000     0          
O        O      0.959800000000     0.921800000000     0.002775000000     0          
O        O      0.918400000000     0.500000000000     0.000000000000     0          
O        O      0.880300000000     0.919850000000     0.244000000000     0          
O        O      0.785900000000     0.944650000000     0.062500000000     0          
O        O      0.727000000000     0.939600000000     0.009400000000     0          
O        O      0.786400000000     0.500000000000     0.000000000000     0          
O        O      0.800600000000     0.910850000000     0.241025000000     0          
O        O      0.800900000000     0.792450000000     0.062500000000     0          
O        O      0.832000000000     0.750000000000     0.000000000000     0          
O        O      0.845800000000     0.839400000000     0.011350000000     0          
O        O      0.846600000000     0.869550000000     0.187500000000     0          
O        O      0.000000000000     0.555600000000     0.062500000000     0          
O        O      0.000000000000     0.500000000000     0.000000000000     0          
T        Si     0.917600000000     0.946800000000     0.014825000000     0          
T        Si     0.774900000000     0.948850000000     0.015825000000     0          
T        Si     0.813100000000     0.798100000000     0.016225000000     0          
T        Si     0.843400000000     0.885050000000     0.141425000000     0          
T        Si     0.000000000000     0.553250000000     0.014575000000     0          
O        O      0.088000000000     0.945250000000     0.062500000000     0          
O        O      0.040200000000     0.921800000000     0.122225000000     0          
O        O      0.119700000000     0.919850000000     0.131000000000     0          
O        O      0.214100000000     0.944650000000     0.062500000000     0          
O        O      0.273000000000     0.939600000000     0.115600000000     0          
O        O      0.199400000000     0.910850000000     0.133975000000     0          
O        O      0.199100000000     0.792450000000     0.062500000000     0          
O        O      0.154200000000     0.839400000000     0.113650000000     0          
O        O      0.153400000000     0.869550000000     0.187500000000     0          
T        Si     0.082400000000     0.946800000000     0.110175000000     0          
T        Si     0.225100000000     0.948850000000     0.109175000000     0          
T        Si     0.186900000000     0.798100000000     0.108775000000     0          
T        Si     0.156600000000     0.885050000000     0.233575000000     0          
T        Si     0.000000000000     0.553250000000     0.110425000000     0          
O        O      0.912000000000     0.554750000000     0.187500000000     0          
O        O      0.959800000000     0.578200000000     0.247225000000     0          
O        O      0.880300000000     0.580150000000     0.006000000000     0          
O        O      0.785900000000     0.555350000000     0.187500000000     0          
O        O      0.727000000000     0.560400000000     0.240600000000     0          
O        O      0.800600000000     0.589150000000     0.008975000000     0          
O        O      0.800900000000     0.707550000000     0.187500000000     0          
O        O      0.845800000000     0.660600000000     0.238650000000     0          
O        O      0.846600000000     0.630450000000     0.062500000000     0          
T        Si     0.917600000000     0.553200000000     0.235175000000     0          
T        Si     0.774900000000     0.551150000000     0.234175000000     0          
T        Si     0.813100000000     0.701900000000     0.233775000000     0          
T        Si     0.843400000000     0.614950000000     0.108575000000     0          
T        Si     0.000000000000     0.946750000000     0.235425000000     0          
O        O      0.959800000000     0.921800000000     0.122225000000     0          
O        O      0.918400000000     0.500000000000     0.125000000000     0          
O        O      0.880300000000     0.919850000000     0.131000000000     0          
O        O      0.727000000000     0.939600000000     0.115600000000     0          
O        O      0.786400000000     0.500000000000     0.125000000000     0          
O        O      0.800600000000     0.910850000000     0.133975000000     0          
O        O      0.832000000000     0.750000000000     0.125000000000     0          
O        O      0.845800000000     0.839400000000     0.113650000000     0          
T        Si     0.917600000000     0.946800000000     0.110175000000     0          
T        Si     0.774900000000     0.948850000000     0.109175000000     0          
T        Si     0.813100000000     0.798100000000     0.108775000000     0          
T        Si     0.843400000000     0.885050000000     0.233575000000     0          
O        O      0.040200000000     0.578200000000     0.247225000000     0          
O        O      0.081600000000     0.500000000000     0.000000000000     0          
O        O      0.119700000000     0.580150000000     0.006000000000     0          
O        O      0.273000000000     0.560400000000     0.240600000000     0          
O        O      0.213600000000     0.500000000000     0.000000000000     0          
O        O      0.199400000000     0.589150000000     0.008975000000     0          
O        O      0.168000000000     0.750000000000     0.000000000000     0          
O        O      0.154200000000     0.660600000000     0.238650000000     0          
T        Si     0.082400000000     0.553200000000     0.235175000000     0          
T        Si     0.225100000000     0.551150000000     0.234175000000     0          
T        Si     0.186900000000     0.701900000000     0.233775000000     0          
T        Si     0.156600000000     0.614950000000     0.108575000000     0          
O        O      0.959800000000     0.578200000000     0.127775000000     0          
O        O      0.880300000000     0.580150000000     0.119000000000     0          
O        O      0.727000000000     0.560400000000     0.134400000000     0          
O        O      0.800600000000     0.589150000000     0.116025000000     0          
O        O      0.845800000000     0.660600000000     0.136350000000     0          
T        Si     0.917600000000     0.553200000000     0.139825000000     0          
T        Si     0.774900000000     0.551150000000     0.140825000000     0          
T        Si     0.813100000000     0.701900000000     0.141225000000     0          
T        Si     0.843400000000     0.614950000000     0.016425000000     0          
O        O      0.040200000000     0.921800000000     0.002775000000     0          
O        O      0.119700000000     0.919850000000     0.244000000000     0          
O        O      0.273000000000     0.939600000000     0.009400000000     0          
O        O      0.199400000000     0.910850000000     0.241025000000     0          
O        O      0.154200000000     0.839400000000     0.011350000000     0          
T        Si     0.082400000000     0.946800000000     0.014825000000     0          
T        Si     0.225100000000     0.948850000000     0.015825000000     0          
T        Si     0.186900000000     0.798100000000     0.016225000000     0          
T        Si     0.156600000000     0.885050000000     0.141425000000     0          
O        O      0.588000000000     0.804750000000     0.187500000000     0          
O        O      0.540200000000     0.828200000000     0.127775000000     0          
O        O      0.581600000000     0.750000000000     0.125000000000     0          
O        O      0.619700000000     0.830150000000     0.119000000000     0          
O        O      0.714100000000     0.805350000000     0.187500000000     0          
O        O      0.773000000000     0.810400000000     0.134400000000     0          
O        O      0.713600000000     0.750000000000     0.125000000000     0          
O        O      0.699400000000     0.839150000000     0.116025000000     0          
O        O      0.699100000000     0.957550000000     0.187500000000     0          
O        O      0.668000000000     0.500000000000     0.125000000000     0          
O        O      0.654200000000     0.910600000000     0.136350000000     0          
O        O      0.653400000000     0.880450000000     0.062500000000     0          
O        O      0.500000000000     0.694400000000     0.187500000000     0          
O        O      0.500000000000     0.750000000000     0.125000000000     0          
T        Si     0.582400000000     0.803200000000     0.139825000000     0          
T        Si     0.725100000000     0.801150000000     0.140825000000     0          
T        Si     0.686900000000     0.951900000000     0.141225000000     0          
T        Si     0.656600000000     0.864950000000     0.016425000000     0          
T        Si     0.500000000000     0.696750000000     0.139575000000     0          
O        O      0.412000000000     0.695250000000     0.062500000000     0          
O        O      0.459800000000     0.671800000000     0.002775000000     0          
O        O      0.418400000000     0.750000000000     0.000000000000     0          
O        O      0.380300000000     0.669850000000     0.244000000000     0          
O        O      0.285900000000     0.694650000000     0.062500000000     0          
O        O      0.227000000000     0.689600000000     0.009400000000     0          
O        O      0.286400000000     0.750000000000     0.000000000000     0          
O        O      0.300600000000     0.660850000000     0.241025000000     0          
O        O      0.300900000000     0.542450000000     0.062500000000     0          
O        O      0.332000000000     0.500000000000     0.000000000000     0          
O        O      0.345800000000     0.589400000000     0.011350000000     0          
O        O      0.346600000000     0.619550000000     0.187500000000     0          
O        O      0.500000000000     0.805600000000     0.062500000000     0          
O        O      0.500000000000     0.750000000000     0.000000000000     0          
T        Si     0.417600000000     0.696800000000     0.014825000000     0          
T        Si     0.274900000000     0.698850000000     0.015825000000     0          
T        Si     0.313100000000     0.548100000000     0.016225000000     0          
T        Si     0.343400000000     0.635050000000     0.141425000000     0          
T        Si     0.500000000000     0.803250000000     0.014575000000     0          
O        O      0.588000000000     0.695250000000     0.062500000000     0          
O        O      0.540200000000     0.671800000000     0.122225000000     0          
O        O      0.619700000000     0.669850000000     0.131000000000     0          
O        O      0.714100000000     0.694650000000     0.062500000000     0          
O        O      0.773000000000     0.689600000000     0.115600000000     0          
O        O      0.699400000000     0.660850000000     0.133975000000     0          
O        O      0.699100000000     0.542450000000     0.062500000000     0          
O        O      0.654200000000     0.589400000000     0.113650000000     0          
O        O      0.653400000000     0.619550000000     0.187500000000     0          
T        Si     0.582400000000     0.696800000000     0.110175000000     0          
T        Si     0.725100000000     0.698850000000     0.109175000000     0          
T        Si     0.686900000000     0.548100000000     0.108775000000     0          
T        Si     0.656600000000     0.635050000000     0.233575000000     0          
T        Si     0.500000000000     0.803250000000     0.110425000000     0          
O        O      0.412000000000     0.804750000000     0.187500000000     0          
O        O      0.459800000000     0.828200000000     0.247225000000     0          
O        O      0.380300000000     0.830150000000     0.006000000000     0          
O        O      0.285900000000     0.805350000000     0.187500000000     0          
O        O      0.227000000000     0.810400000000     0.240600000000     0          
O        O      0.300600000000     0.839150000000     0.008975000000     0          
O        O      0.300900000000     0.957550000000     0.187500000000     0          
O        O      0.345800000000     0.910600000000     0.238650000000     0          
O        O      0.346600000000     0.880450000000     0.062500000000     0          
T        Si     0.417600000000     0.803200000000     0.235175000000     0          
T        Si     0.274900000000     0.801150000000     0.234175000000     0          
T        Si     0.313100000000     0.951900000000     0.233775000000     0          
T        Si     0.343400000000     0.864950000000     0.108575000000     0          
T        Si     0.500000000000     0.696750000000     0.235425000000     0          
O        O      0.459800000000     0.671800000000     0.122225000000     0          
O        O      0.418400000000     0.750000000000     0.125000000000     0          
O        O      0.380300000000     0.669850000000     0.131000000000     0          
O        O      0.227000000000     0.689600000000     0.115600000000     0          
O        O      0.286400000000     0.750000000000     0.125000000000     0          
O        O      0.300600000000     0.660850000000     0.133975000000     0          
O        O      0.332000000000     0.500000000000     0.125000000000     0          
O        O      0.345800000000     0.589400000000     0.113650000000     0          
T        Si     0.417600000000     0.696800000000     0.110175000000     0          
T        Si     0.274900000000     0.698850000000     0.109175000000     0          
T        Si     0.313100000000     0.548100000000     0.108775000000     0          
T        Si     0.343400000000     0.635050000000     0.233575000000     0          
O        O      0.540200000000     0.828200000000     0.247225000000     0          
O        O      0.581600000000     0.750000000000     0.000000000000     0          
O        O      0.619700000000     0.830150000000     0.006000000000     0          
O        O      0.773000000000     0.810400000000     0.240600000000     0          
O        O      0.713600000000     0.750000000000     0.000000000000     0          
O        O      0.699400000000     0.839150000000     0.008975000000     0          
O        O      0.668000000000     0.500000000000     0.000000000000     0          
O        O      0.654200000000     0.910600000000     0.238650000000     0          
T        Si     0.582400000000     0.803200000000     0.235175000000     0          
T        Si     0.725100000000     0.801150000000     0.234175000000     0          
T        Si     0.686900000000     0.951900000000     0.233775000000     0          
T        Si     0.656600000000     0.864950000000     0.108575000000     0          
O        O      0.459800000000     0.828200000000     0.127775000000     0          
O        O      0.380300000000     0.830150000000     0.119000000000     0          
O        O      0.227000000000     0.810400000000     0.134400000000     0          
O        O      0.300600000000     0.839150000000     0.116025000000     0          
O        O      0.345800000000     0.910600000000     0.136350000000     0          
T        Si     0.417600000000     0.803200000000     0.139825000000     0          
T        Si     0.274900000000     0.801150000000     0.140825000000     0          
T        Si     0.313100000000     0.951900000000     0.141225000000     0          
T        Si     0.343400000000     0.864950000000     0.016425000000     0          
O        O      0.540200000000     0.671800000000     0.002775000000     0          
O        O      0.619700000000     0.669850000000     0.244000000000     0          
O        O      0.773000000000     0.689600000000     0.009400000000     0          
O        O      0.699400000000     0.660850000000     0.241025000000     0          
O        O      0.654200000000     0.589400000000     0.011350000000     0          
T        Si     0.582400000000     0.696800000000     0.014825000000     0          
T        Si     0.725100000000     0.698850000000     0.015825000000     0          
T        Si     0.686900000000     0.548100000000     0.016225000000     0          
T        Si     0.656600000000     0.635050000000     0.141425000000     0          
O        O      0.088000000000     0.554750000000     0.437500000000     0          
O        O      0.040200000000     0.578200000000     0.377775000000     0          
O        O      0.081600000000     0.500000000000     0.375000000000     0          
O        O      0.119700000000     0.580150000000     0.369000000000     0          
O        O      0.214100000000     0.555350000000     0.437500000000     0          
O        O      0.273000000000     0.560400000000     0.384400000000     0          
O        O      0.213600000000     0.500000000000     0.375000000000     0          
O        O      0.199400000000     0.589150000000     0.366025000000     0          
O        O      0.199100000000     0.707550000000     0.437500000000     0          
O        O      0.168000000000     0.750000000000     0.375000000000     0          
O        O      0.154200000000     0.660600000000     0.386350000000     0          
O        O      0.153400000000     0.630450000000     0.312500000000     0          
O        O      0.000000000000     0.944400000000     0.437500000000     0          
O        O      0.000000000000     0.500000000000     0.375000000000     0          
T        Si     0.082400000000     0.553200000000     0.389825000000     0          
T        Si     0.225100000000     0.551150000000     0.390825000000     0          
T        Si     0.186900000000     0.701900000000     0.391225000000     0          
T        Si     0.156600000000     0.614950000000     0.266425000000     0          
T        Si     0.000000000000     0.946750000000     0.389575000000     0          
O        O      0.912000000000     0.945250000000     0.312500000000     0          
O        O      0.959800000000     0.921800000000     0.252775000000     0          
O        O      0.918400000000     0.500000000000     0.250000000000     0          
O        O      0.880300000000     0.919850000000     0.494000000000     0          
O        O      0.785900000000     0.944650000000     0.312500000000     0          
O        O      0.727000000000     0.939600000000     0.259400000000     0          
O        O      0.786400000000     0.500000000000     0.250000000000     0          
O        O      0.800600000000     0.910850000000     0.491025000000     0          
O        O      0.800900000000     0.792450000000     0.312500000000     0          
O        O      0.832000000000     0.750000000000     0.250000000000     0          
O        O      0.845800000000     0.839400000000     0.261350000000     0          
O        O      0.846600000000     0.869550000000     0.437500000000     0          
O        O      0.000000000000     0.555600000000     0.312500000000     0          
O        O      0.000000000000     0.500000000000     0.250000000000     0          
T        Si     0.917600000000     0.946800000000     0.264825000000     0          
T        Si     0.774900000000     0.948850000000     0.265825000000     0          
T        Si     0.813100000000     0.798100000000     0.266225000000     0          
T        Si     0.843400000000     0.885050000000     0.391425000000     0          
T        Si     0.000000000000     0.553250000000     0.264575000000     0          
O        O      0.088000000000     0.945250000000     0.312500000000     0          
O        O      0.040200000000     0.921800000000     0.372225000000     0          
O        O      0.119700000000     0.919850000000     0.381000000000     0          
O        O      0.214100000000     0.944650000000     0.312500000000     0          
O        O      0.273000000000     0.939600000000     0.365600000000     0          
O        O      0.199400000000     0.910850000000     0.383975000000     0          
O        O      0.199100000000     0.792450000000     0.312500000000     0          
O        O      0.154200000000     0.839400000000     0.363650000000     0          
O        O      0.153400000000     0.869550000000     0.437500000000     0          
T        Si     0.082400000000     0.946800000000     0.360175000000     0          
T        Si     0.225100000000     0.948850000000     0.359175000000     0          
T        Si     0.186900000000     0.798100000000     0.358775000000     0          
T        Si     0.156600000000     0.885050000000     0.483575000000     0          
T        Si     0.000000000000     0.553250000000     0.360425000000     0          
O        O      0.912000000000     0.554750000000     0.437500000000     0          
O        O      0.959800000000     0.578200000000     0.497225000000     0          
O        O      0.880300000000     0.580150000000     0.256000000000     0          
O        O      0.785900000000     0.555350000000     0.437500000000     0          
O        O      0.727000000000     0.560400000000     0.490600000000     0          
O        O      0.800600000000     0.589150000000     0.258975000000     0          
O        O      0.800900000000     0.707550000000     0.437500000000     0          
O        O      0.845800000000     0.660600000000     0.488650000000     0          
O        O      0.846600000000     0.630450000000     0.312500000000     0          
T        Si     0.917600000000     0.553200000000     0.485175000000     0          
T        Si     0.774900000000     0.551150000000     0.484175000000     0          
T        Si     0.813100000000     0.701900000000     0.483775000000     0          
T        Si     0.843400000000     0.614950000000     0.358575000000     0          
T        Si     0.000000000000     0.946750000000     0.485425000000     0          
O        O      0.959800000000     0.921800000000     0.372225000000     0          
O        O      0.918400000000     0.500000000000     0.375000000000     0          
O        O      0.880300000000     0.919850000000     0.381000000000     0          
O        O      0.727000000000     0.939600000000     0.365600000000     0          
O        O      0.786400000000     0.500000000000     0.375000000000     0          
O        O      0.800600000000     0.910850000000     0.383975000000     0          
O        O      0.832000000000     0.750000000000     0.375000000000     0          
O        O      0.845800000000     0.839400000000     0.363650000000     0          
T        Si     0.917600000000     0.946800000000     0.360175000000     0          
T        Si     0.774900000000     0.948850000000     0.359175000000     0          
T        Si     0.813100000000     0.798100000000     0.358775000000     0          
T        Si     0.843400000000     0.885050000000     0.483575000000     0          
O        O      0.040200000000     0.578200000000     0.497225000000     0          
O        O      0.081600000000     0.500000000000     0.250000000000     0          
O        O      0.119700000000     0.580150000000     0.256000000000     0          
O        O      0.273000000000     0.560400000000     0.490600000000     0          
O        O      0.213600000000     0.500000000000     0.250000000000     0          
O        O      0.199400000000     0.589150000000     0.258975000000     0          
O        O      0.168000000000     0.750000000000     0.250000000000     0          
O        O      0.154200000000     0.660600000000     0.488650000000     0          
T        Si     0.082400000000     0.553200000000     0.485175000000     0          
T        Si     0.225100000000     0.551150000000     0.484175000000     0          
T        Si     0.186900000000     0.701900000000     0.483775000000     0          
T        Si     0.156600000000     0.614950000000     0.358575000000     0          
O        O      0.959800000000     0.578200000000     0.377775000000     0          
O        O      0.880300000000     0.580150000000     0.369000000000     0          
O        O      0.727000000000     0.560400000000     0.384400000000     0          
O        O      0.800600000000     0.589150000000     0.366025000000     0          
O        O      0.845800000000     0.660600000000     0.386350000000     0          
T        Si     0.917600000000     0.553200000000     0.389825000000     0          
T        Si     0.774900000000     0.551150000000     0.390825000000     0          
T        Si     0.813100000000     0.701900000000     0.391225000000     0          
T        Si     0.843400000000     0.614950000000     0.266425000000     0          
O        O      0.040200000000     0.921800000000     0.252775000000     0          
O        O      0.119700000000     0.919850000000     0.494000000000     0          
O        O      0.273000000000     0.939600000000     0.259400000000     0          
O        O      0.199400000000     0.910850000000     0.491025000000     0          
O        O      0.154200000000     0.839400000000     0.261350000000     0          
T        Si     0.082400000000     0.946800000000     0.264825000000     0          
T        Si     0.225100000000     0.948850000000     0.265825000000     0          
T        Si     0.186900000000     0.798100000000     0.266225000000     0          
T        Si     0.156600000000     0.885050000000     0.391425000000     0          
O        O      0.588000000000     0.804750000000     0.437500000000     0          
O        O      0.540200000000     0.828200000000     0.377775000000     0          
O        O      0.581600000000     0.750000000000     0.375000000000     0          
O        O      0.619700000000     0.830150000000     0.369000000000     0          
O        O      0.714100000000     0.805350000000     0.437500000000     0          
O        O      0.773000000000     0.810400000000     0.384400000000     0          
O        O      0.713600000000     0.750000000000     0.375000000000     0          
O        O      0.699400000000     0.839150000000     0.366025000000     0          
O        O      0.699100000000     0.957550000000     0.437500000000     0          
O        O      0.668000000000     0.500000000000     0.375000000000     0          
O        O      0.654200000000     0.910600000000     0.386350000000     0          
O        O      0.653400000000     0.880450000000     0.312500000000     0          
O        O      0.500000000000     0.694400000000     0.437500000000     0          
O        O      0.500000000000     0.750000000000     0.375000000000     0          
T        Si     0.582400000000     0.803200000000     0.389825000000     0          
T        Si     0.725100000000     0.801150000000     0.390825000000     0          
T        Si     0.686900000000     0.951900000000     0.391225000000     0          
T        Si     0.656600000000     0.864950000000     0.266425000000     0          
T        Si     0.500000000000     0.696750000000     0.389575000000     0          
O        O      0.412000000000     0.695250000000     0.312500000000     0          
O        O      0.459800000000     0.671800000000     0.252775000000     0          
O        O      0.418400000000     0.750000000000     0.250000000000     0          
O        O      0.380300000000     0.669850000000     0.494000000000     0          
O        O      0.285900000000     0.694650000000     0.312500000000     0          
O        O      0.227000000000     0.689600000000     0.259400000000     0          
O        O      0.286400000000     0.750000000000     0.250000000000     0          
O        O      0.300600000000     0.660850000000     0.491025000000     0          
O        O      0.300900000000     0.542450000000     0.312500000000     0          
O        O      0.332000000000     0.500000000000     0.250000000000     0          
O        O      0.345800000000     0.589400000000     0.261350000000     0          
O        O      0.346600000000     0.619550000000     0.437500000000     0          
O        O      0.500000000000     0.805600000000     0.312500000000     0          
O        O      0.500000000000     0.750000000000     0.250000000000     0          
T        Si     0.417600000000     0.696800000000     0.264825000000     0          
T        Si     0.274900000000     0.698850000000     0.265825000000     0          
T        Si     0.313100000000     0.548100000000     0.266225000000     0          
T        Si     0.343400000000     0.635050000000     0.391425000000     0          
T        Si     0.500000000000     0.803250000000     0.264575000000     0          
O        O      0.588000000000     0.695250000000     0.312500000000     0          
O        O      0.540200000000     0.671800000000     0.372225000000     0          
O        O      0.619700000000     0.669850000000     0.381000000000     0          
O        O      0.714100000000     0.694650000000     0.312500000000     0          
O        O      0.773000000000     0.689600000000     0.365600000000     0          
O        O      0.699400000000     0.660850000000     0.383975000000     0          
O        O      0.699100000000     0.542450000000     0.312500000000     0          
O        O      0.654200000000     0.589400000000     0.363650000000     0          
O        O      0.653400000000     0.619550000000     0.437500000000     0          
T        Si     0.582400000000     0.696800000000     0.360175000000     0          
T        Si     0.725100000000     0.698850000000     0.359175000000     0          
T        Si     0.686900000000     0.548100000000     0.358775000000     0          
T        Si     0.656600000000     0.635050000000     0.483575000000     0          
T        Si     0.500000000000     0.803250000000     0.360425000000     0          
O        O      0.412000000000     0.804750000000     0.437500000000     0          
O        O      0.459800000000     0.828200000000     0.497225000000     0          
O        O      0.380300000000     0.830150000000     0.256000000000     0          
O        O      0.285900000000     0.805350000000     0.437500000000     0          
O        O      0.227000000000     0.810400000000     0.490600000000     0          
O        O      0.300600000000     0.839150000000     0.258975000000     0          
O        O      0.300900000000     0.957550000000     0.437500000000     0          
O        O      0.345800000000     0.910600000000     0.488650000000     0          
O        O      0.346600000000     0.880450000000     0.312500000000     0          
T        Si     0.417600000000     0.803200000000     0.485175000000     0          
T        Si     0.274900000000     0.801150000000     0.484175000000     0          
T        Si     0.313100000000     0.951900000000     0.483775000000     0          
T        Si     0.343400000000     0.864950000000     0.358575000000     0          
T        Si     0.500000000000     0.696750000000     0.485425000000     0          
O        O      0.459800000000     0.671800000000     0.372225000000     0          
O        O      0.418400000000     0.750000000000     0.375000000000     0          
O        O      0.380300000000     0.669850000000     0.381000000000     0          
O        O      0.227000000000     0.689600000000     0.365600000000     0          
O        O      0.286400000000     0.750000000000     0.375000000000     0          
O        O      0.300600000000     0.660850000000     0.383975000000     0          
O        O      0.332000000000     0.500000000000     0.375000000000     0          
O        O      0.345800000000     0.589400000000     0.363650000000     0          
T        Si     0.417600000000     0.696800000000     0.360175000000     0          
T        Si     0.274900000000     0.698850000000     0.359175000000     0          
T        Si     0.313100000000     0.548100000000     0.358775000000     0          
T        Si     0.343400000000     0.635050000000     0.483575000000     0          
O        O      0.540200000000     0.828200000000     0.497225000000     0          
O        O      0.581600000000     0.750000000000     0.250000000000     0          
O        O      0.619700000000     0.830150000000     0.256000000000     0          
O        O      0.773000000000     0.810400000000     0.490600000000     0          
O        O      0.713600000000     0.750000000000     0.250000000000     0          
O        O      0.699400000000     0.839150000000     0.258975000000     0          
O        O      0.668000000000     0.500000000000     0.250000000000     0          
O        O      0.654200000000     0.910600000000     0.488650000000     0          
T        Si     0.582400000000     0.803200000000     0.485175000000     0          
T        Si     0.725100000000     0.801150000000     0.484175000000     0          
T        Si     0.686900000000     0.951900000000     0.483775000000     0          
T        Si     0.656600000000     0.864950000000     0.358575000000     0          
O        O      0.459800000000     0.828200000000     0.377775000000     0          
O        O      0.380300000000     0.830150000000     0.369000000000     0          
O        O      0.227000000000     0.810400000000     0.384400000000     0          
O        O      0.300600000000     0.839150000000     0.366025000000     0          
O        O      0.345800000000     0.910600000000     0.386350000000     0          
T        Si     0.417600000000     0.803200000000     0.389825000000     0          
T        Si     0.274900000000     0.801150000000     0.390825000000     0          
T        Si     0.313100000000     0.951900000000     0.391225000000     0          
T        Si     0.343400000000     0.864950000000     0.266425000000     0          
O        O      0.540200000000     0.671800000000     0.252775000000     0          
O        O      0.619700000000     0.669850000000     0.494000000000     0          
O        O      0.773000000000     0.689600000000     0.259400000000     0          
O        O      0.699400000000     0.660850000000     0.491025000000     0          
O        O      0.654200000000     0.589400000000     0.261350000000     0          
T        Si     0.582400000000     0.696800000000     0.264825000000     0          
T        Si     0.725100000000     0.698850000000     0.265825000000     0          
T        Si     0.686900000000     0.548100000000     0.266225000000     0          
T        Si     0.656600000000     0.635050000000     0.391425000000     0          
O        O      0.088000000000     0.554750000000     0.687500000000     0          
O        O      0.040200000000     0.578200000000     0.627775000000     0          
O        O      0.081600000000     0.500000000000     0.625000000000     0          
O        O      0.119700000000     0.580150000000     0.619000000000     0          
O        O      0.214100000000     0.555350000000     0.687500000000     0          
O        O      0.273000000000     0.560400000000     0.634400000000     0          
O        O      0.213600000000     0.500000000000     0.625000000000     0          
O        O      0.199400000000     0.589150000000     0.616025000000     0          
O        O      0.199100000000     0.707550000000     0.687500000000     0          
O        O      0.168000000000     0.750000000000     0.625000000000     0          
O        O      0.154200000000     0.660600000000     0.636350000000     0          
O        O      0.153400000000     0.630450000000     0.562500000000     0          
O        O      0.000000000000     0.944400000000     0.687500000000     0          
O        O      0.000000000000     0.500000000000     0.625000000000     0          
T        Si     0.082400000000     0.553200000000     0.639825000000     0          
T        Si     0.225100000000     0.551150000000     0.640825000000     0          
T        Si     0.186900000000     0.701900000000     0.641225000000     0          
T        Si     0.156600000000     0.614950000000     0.516425000000     0          
T        Si     0.000000000000     0.946750000000     0.639575000000     0          
O        O      0.912000000000     0.945250000000     0.562500000000     0          
O        O      0.959800000000     0.921800000000     0.502775000000     0          
O        O      0.918400000000     0.500000000000     0.500000000000     0          
O        O      0.880300000000     0.919850000000     0.744000000000     0          
O        O      0.785900000000     0.944650000000     0.562500000000     0          
O        O      0.727000000000     0.939600000000     0.509400000000     0          
O        O      0.786400000000     0.500000000000     0.500000000000     0          
O        O      0.800600000000     0.910850000000     0.741025000000     0          
O        O      0.800900000000     0.792450000000     0.562500000000     0          
O        O      0.832000000000     0.750000000000     0.500000000000     0          
O        O      0.845800000000     0.839400000000     0.511350000000     0          
O        O      0.846600000000     0.869550000000     0.687500000000     0          
O        O      0.000000000000     0.555600000000     0.562500000000     0          
O        O      0.000000000000     0.500000000000     0.500000000000     0          
T        Si     0.917600000000     0.946800000000     0.514825000000     0          
T        Si     0.774900000000     0.948850000000     0.515825000000     0          
T        Si     0.813100000000     0.798100000000     0.516225000000     0          
T        Si     0.843400000000     0.885050000000     0.641425000000     0          
T        Si     0.000000000000     0.553250000000     0.514575000000     0          
O        O      0.088000000000     0.945250000000     0.562500000000     0          
O        O      0.040200000000     0.921800000000     0.622225000000     0          
O        O      0.119700000000     0.919850000000     0.631000000000     0          
O        O      0.214100000000     0.944650000000     0.562500000000     0          
O        O      0.273000000000     0.939600000000     0.615600000000     0          
O        O      0.199400000000     0.910850000000     0.633975000000     0          
O        O      0.199100000000     0.792450000000     0.562500000000     0          
O        O      0.154200000000     0.839400000000     0.613650000000     0          
O        O      0.153400000000     0.869550000000     0.687500000000     0          
T        Si     0.082400000000     0.946800000000     0.610175000000     0          
T        Si     0.225100000000     0.948850000000     0.609175000000     0          
T        Si     0.186900000000     0.798100000000     0.608775000000     0          
T        Si     0.156600000000     0.885050000000     0.733575000000     0          
T        Si     0.000000000000     0.553250000000     0.610425000000     0          
O        O      0.912000000000     0.554750000000     0.687500000000     0          
O        O      0.959800000000     0.578200000000     0.747225000000     0          
O        O      0.880300000000     0.580150000000     0.506000000000     0          
O        O      0.785900000000     0.555350000000     0.687500000000     0          
O        O      0.727000000000     0.560400000000     0.740600000000     0          
O        O      0.800600000000     0.589150000000     0.508975000000     0          
O        O      0.800900000000     0.707550000000     0.687500000000     0          
O        O      0.845800000000     0.660600000000     0.738650000000     0          
O        O      0.846600000000     0.630450000000     0.562500000000     0          
T        Si     0.917600000000     0.553200000000     0.735175000000     0          
T        Si     0.774900000000     0.551150000000     0.734175000000     0          
T        Si     0.813100000000     0.701900000000     0.733775000000     0          
T        Si     0.843400000000     0.614950000000     0.608575000000     0          
T        Si     0.000000000000     0.946750000000     0.735425000000     0          
O        O      0.959800000000     0.921800000000     0.622225000000     0          
O        O      0.918400000000     0.500000000000     0.625000000000     0          
O        O      0.880300000000     0.919850000000     0.631000000000     0          
O        O      0.727000000000     0.939600000000     0.615600000000     0          
O        O      0.786400000000     0.500000000000     0.625000000000     0          
O        O      0.800600000000     0.910850000000     0.633975000000     0          
O        O      0.832000000000     0.750000000000     0.625000000000     0          
O        O      0.845800000000     0.839400000000     0.613650000000     0          
T        Si     0.917600000000     0.946800000000     0.610175000000     0          
T        Si     0.774900000000     0.948850000000     0.609175000000     0          
T        Si     0.813100000000     0.798100000000     0.608775000000     0          
T        Si     0.843400000000     0.885050000000     0.733575000000     0          
O        O      0.040200000000     0.578200000000     0.747225000000     0          
O        O      0.081600000000     0.500000000000     0.500000000000     0          
O        O      0.119700000000     0.580150000000     0.506000000000     0          
O        O      0.273000000000     0.560400000000     0.740600000000     0          
O        O      0.213600000000     0.500000000000     0.500000000000     0          
O        O      0.199400000000     0.589150000000     0.508975000000     0          
O        O      0.168000000000     0.750000000000     0.500000000000     0          
O        O      0.154200000000     0.660600000000     0.738650000000     0          
T        Si     0.082400000000     0.553200000000     0.735175000000     0          
T        Si     0.225100000000     0.551150000000     0.734175000000     0          
T        Si     0.186900000000     0.701900000000     0.733775000000     0          
T        Si     0.156600000000     0.614950000000     0.608575000000     0          
O        O      0.959800000000     0.578200000000     0.627775000000     0          
O        O      0.880300000000     0.580150000000     0.619000000000     0          
O        O      0.727000000000     0.560400000000     0.634400000000     0          
O        O      0.800600000000     0.589150000000     0.616025000000     0          
O        O      0.845800000000     0.660600000000     0.636350000000     0          
T        Si     0.917600000000     0.553200000000     0.639825000000     0          
T        Si     0.774900000000     0.551150000000     0.640825000000     0          
T        Si     0.813100000000     0.701900000000     0.641225000000     0          
T        Si     0.843400000000     0.614950000000     0.516425000000     0          
O        O      0.040200000000     0.921800000000     0.502775000000     0          
O        O      0.119700000000     0.919850000000     0.744000000000     0          
O        O      0.273000000000     0.939600000000     0.509400000000     0          
O        O      0.199400000000     0.910850000000     0.741025000000     0          
O        O      0.154200000000     0.839400000000     0.511350000000     0          
T        Si     0.082400000000     0.946800000000     0.514825000000     0          
T        Si     0.225100000000     0.948850000000     0.515825000000     0          
T        Si     0.186900000000     0.798100000000     0.516225000000     0          
T        Si     0.156600000000     0.885050000000     0.641425000000     0          
O        O      0.588000000000     0.804750000000     0.687500000000     0          
O        O      0.540200000000     0.828200000000     0.627775000000     0          
O        O      0.581600000000     0.750000000000     0.625000000000     0          
O        O      0.619700000000     0.830150000000     0.619000000000     0          
O        O      0.714100000000     0.805350000000     0.687500000000     0          
O        O      0.773000000000     0.810400000000     0.634400000000     0          
O        O      0.713600000000     0.750000000000     0.625000000000     0          
O        O      0.699400000000     0.839150000000     0.616025000000     0          
O        O      0.699100000000     0.957550000000     0.687500000000     0          
O        O      0.668000000000     0.500000000000     0.625000000000     0          
O        O      0.654200000000     0.910600000000     0.636350000000     0          
O        O      0.653400000000     0.880450000000     0.562500000000     0          
O        O      0.500000000000     0.694400000000     0.687500000000     0          
O        O      0.500000000000     0.750000000000     0.625000000000     0          
T        Si     0.582400000000     0.803200000000     0.639825000000     0          
T        Si     0.725100000000     0.801150000000     0.640825000000     0          
T        Si     0.686900000000     0.951900000000     0.641225000000     0          
T        Si     0.656600000000     0.864950000000     0.516425000000     0          
T        Si     0.500000000000     0.696750000000     0.639575000000     0          
O        O      0.412000000000     0.695250000000     0.562500000000     0          
O        O      0.459800000000     0.671800000000     0.502775000000     0          
O        O      0.418400000000     0.750000000000     0.500000000000     0          
O        O      0.380300000000     0.669850000000     0.744000000000     0          
O        O      0.285900000000     0.694650000000     0.562500000000     0          
O        O      0.227000000000     0.689600000000     0.509400000000     0          
O        O      0.286400000000     0.750000000000     0.500000000000     0          
O        O      0.300600000000     0.660850000000     0.741025000000     0          
O        O      0.300900000000     0.542450000000     0.562500000000     0          
O        O      0.332000000000     0.500000000000     0.500000000000     0          
O        O      0.345800000000     0.589400000000     0.511350000000     0          
O        O      0.346600000000     0.619550000000     0.687500000000     0          
O        O      0.500000000000     0.805600000000     0.562500000000     0          
O        O      0.500000000000     0.750000000000     0.500000000000     0          
T        Si     0.417600000000     0.696800000000     0.514825000000     0          
T        Si     0.274900000000     0.698850000000     0.515825000000     0          
T        Si     0.313100000000     0.548100000000     0.516225000000     0          
T        Si     0.343400000000     0.635050000000     0.641425000000     0          
T        Si     0.500000000000     0.803250000000     0.514575000000     0          
O        O      0.588000000000     0.695250000000     0.562500000000     0          
O        O      0.540200000000     0.671800000000     0.622225000000     0          
O        O      0.619700000000     0.669850000000     0.631000000000     0          
O        O      0.714100000000     0.694650000000     0.562500000000     0          
O        O      0.773000000000     0.689600000000     0.615600000000     0          
O        O      0.699400000000     0.660850000000     0.633975000000     0          
O        O      0.699100000000     0.542450000000     0.562500000000     0          
O        O      0.654200000000     0.589400000000     0.613650000000     0          
O        O      0.653400000000     0.619550000000     0.687500000000     0          
T        Si     0.582400000000     0.696800000000     0.610175000000     0          
T        Si     0.725100000000     0.698850000000     0.609175000000     0          
T        Si     0.686900000000     0.548100000000     0.608775000000     0          
T        Si     0.656600000000     0.635050000000     0.733575000000     0          
T        Si     0.500000000000     0.803250000000     0.610425000000     0          
O        O      0.412000000000     0.804750000000     0.687500000000     0          
O        O      0.459800000000     0.828200000000     0.747225000000     0          
O        O      0.380300000000     0.830150000000     0.506000000000     0          
O        O      0.285900000000     0.805350000000     0.687500000000     0          
O        O      0.227000000000     0.810400000000     0.740600000000     0          
O        O      0.300600000000     0.839150000000     0.508975000000     0          
O        O      0.300900000000     0.957550000000     0.687500000000     0          
O        O      0.345800000000     0.910600000000     0.738650000000     0          
O        O      0.346600000000     0.880450000000     0.562500000000     0          
T        Si     0.417600000000     0.803200000000     0.735175000000     0          
T        Si     0.274900000000     0.801150000000     0.734175000000     0          
T        Si     0.313100000000     0.951900000000     0.733775000000     0          
T        Si     0.343400000000     0.864950000000     0.608575000000     0          
T        Si     0.500000000000     0.696750000000     0.735425000000     0          
O        O      0.459800000000     0.671800000000     0.622225000000     0          
O        O      0.418400000000     0.750000000000     0.625000000000     0          
O        O      0.380300000000     0.669850000000     0.631000000000     0          
O        O      0.227000000000     0.689600000000     0.615600000000     0          
O        O      0.286400000000     0.750000000000     0.625000000000     0          
O        O      0.300600000000     0.660850000000     0.633975000000     0          
O        O      0.332000000000     0.500000000000     0.625000000000     0          
O        O      0.345800000000     0.589400000000     0.613650000000     0          
T        Si     0.417600000000     0.696800000000     0.610175000000     0          
T        Si     0.274900000000     0.698850000000     0.609175000000     0          
T        Si     0.313100000000     0.548100000000     0.608775000000     0          
T        Si     0.343400000000     0.635050000000     0.733575000000     0          
O        O      0.540200000000     0.828200000000     0.747225000000     0          
O        O      0.581600000000     0.750000000000     0.500000000000     0          
O        O      0.619700000000     0.830150000000     0.506000000000     0          
O        O      0.773000000000     0.810400000000     0.740600000000     0          
O        O      0.713600000000     0.750000000000     0.500000000000     0          
O        O      0.699400000000     0.839150000000     0.508975000000     0          
O        O      0.668000000000     0.500000000000     0.500000000000     0          
O        O      0.654200000000     0.910600000000     0.738650000000     0          
T        Si     0.582400000000     0.803200000000     0.735175000000     0          
T        Si     0.725100000000     0.801150000000     0.734175000000     0          
T        Si     0.686900000000     0.951900000000     0.733775000000     0          
T        Si     0.656600000000     0.864950000000     0.608575000000     0          
O        O      0.459800000000     0.828200000000     0.627775000000     0          
O        O      0.380300000000     0.830150000000     0.619000000000     0          
O        O      0.227000000000     0.810400000000     0.634400000000     0          
O        O      0.300600000000     0.839150000000     0.616025000000     0          
O        O      0.345800000000     0.910600000000     0.636350000000     0          
T        Si     0.417600000000     0.803200000000     0.639825000000     0          
T        Si     0.274900000000     0.801150000000     0.640825000000     0          
T        Si     0.313100000000     0.951900000000     0.641225000000     0          
T        Si     0.343400000000     0.864950000000     0.516425000000     0          
O        O      0.540200000000     0.671800000000     0.502775000000     0          
O        O      0.619700000000     0.669850000000     0.744000000000     0          
O        O      0.773000000000     0.689600000000     0.509400000000     0          
O        O      0.699400000000     0.660850000000     0.741025000000     0          
O        O      0.654200000000     0.589400000000     0.511350000000     0          
T        Si     0.582400000000     0.696800000000     0.514825000000     0          
T        Si     0.725100000000     0.698850000000     0.515825000000     0          
T        Si     0.686900000000     0.548100000000     0.516225000000     0          
T        Si     0.656600000000     0.635050000000     0.641425000000     0          
O        O      0.088000000000     0.554750000000     0.937500000000     0          
O        O      0.040200000000     0.578200000000     0.877775000000     0          
O        O      0.081600000000     0.500000000000     0.875000000000     0          
O        O      0.119700000000     0.580150000000     0.869000000000     0          
O        O      0.214100000000     0.555350000000     0.937500000000     0          
O        O      0.273000000000     0.560400000000     0.884400000000     0          
O        O      0.213600000000     0.500000000000     0.875000000000     0          
O        O      0.199400000000     0.589150000000     0.866025000000     0          
O        O      0.199100000000     0.707550000000     0.937500000000     0          
O        O      0.168000000000     0.750000000000     0.875000000000     0          
O        O      0.154200000000     0.660600000000     0.886350000000     0          
O        O      0.153400000000     0.630450000000     0.812500000000     0          
O        O      0.000000000000     0.944400000000     0.937500000000     0          
O        O      0.000000000000     0.500000000000     0.875000000000     0          
T        Si     0.082400000000     0.553200000000     0.889825000000     0          
T        Si     0.225100000000     0.551150000000     0.890825000000     0          
T        Si     0.186900000000     0.701900000000     0.891225000000     0          
T        Si     0.156600000000     0.614950000000     0.766425000000     0          
T        Si     0.000000000000     0.946750000000     0.889575000000     0          
O        O      0.912000000000     0.945250000000     0.812500000000     0          
O        O      0.959800000000     0.921800000000     0.752775000000     0          
O        O      0.918400000000     0.500000000000     0.750000000000     0          
O        O      0.880300000000     0.919850000000     0.994000000000     0          
O        O      0.785900000000     0.944650000000     0.812500000000     0          
O        O      0.727000000000     0.939600000000     0.759400000000     0          
O        O      0.786400000000     0.500000000000     0.750000000000     0          
O        O      0.800600000000     0.910850000000     0.991025000000     0          
O        O      0.800900000000     0.792450000000     0.812500000000     0          
O        O      0.832000000000     0.750000000000     0.750000000000     0          
O        O      0.845800000000     0.839400000000     0.761350000000     0          
O        O      0.846600000000     0.869550000000     0.937500000000     0          
O        O      0.000000000000     0.555600000000     0.812500000000     0          
O        O      0.000000000000     0.500000000000     0.750000000000     0          
T        Si     0.917600000000     0.946800000000     0.764825000000     0          
T        Si     0.774900000000     0.948850000000     0.765825000000     0          
T        Si     0.813100000000     0.798100000000     0.766225000000     0          
T        Si     0.843400000000     0.885050000000     0.891425000000     0          
T        Si     0.000000000000     0.553250000000     0.764575000000     0          
O        O      0.088000000000     0.945250000000     0.812500000000     0          
O        O      0.040200000000     0.921800000000     0.872225000000     0          
O        O      0.119700000000     0.919850000000     0.881000000000     0          
O        O      0.214100000000     0.944650000000     0.812500000000     0          
O        O      0.273000000000     0.939600000000     0.865600000000     0          
O        O      0.199400000000     0.910850000000     0.883975000000     0          
O        O      0.199100000000     0.792450000000     0.812500000000     0          
O        O      0.154200000000     0.839400000000     0.863650000000     0          
O        O      0.153400000000     0.869550000000     0.937500000000     0          
T        Si     0.082400000000     0.946800000000     0.860175000000     0          
T        Si     0.225100000000     0.948850000000     0.859175000000     0          
T        Si     0.186900000000     0.798100000000     0.858775000000     0          
T        Si     0.156600000000     0.885050000000     0.983575000000     0          
T        Si     0.000000000000     0.553250000000     0.860425000000     0          
O        O      0.912000000000     0.554750000000     0.937500000000     0          
O        O      0.959800000000     0.578200000000     0.997225000000     0          
O        O      0.880300000000     0.580150000000     0.756000000000     0          
O        O      0.785900000000     0.555350000000     0.937500000000     0          
O        O      0.727000000000     0.560400000000     0.990600000000     0          
O        O      0.800600000000     0.589150000000     0.758975000000     0          
O        O      0.800900000000     0.707550000000     0.937500000000     0          
O        O      0.845800000000     0.660600000000     0.988650000000     0          
O        O      0.846600000000     0.630450000000     0.812500000000     0          
T        Si     0.917600000000     0.553200000000     0.985175000000     0          
T        Si     0.774900000000     0.551150000000     0.984175000000     0          
T        Si     0.813100000000     0.701900000000     0.983775000000     0          
T        Si     0.843400000000     0.614950000000     0.858575000000     0          
T        Si     0.000000000000     0.946750000000     0.985425000000     0          
O        O      0.959800000000     0.921800000000     0.872225000000     0          
O        O      0.918400000000     0.500000000000     0.875000000000     0          
O        O      0.880300000000     0.919850000000     0.881000000000     0          
O        O      0.727000000000     0.939600000000     0.865600000000     0          
O        O      0.786400000000     0.500000000000     0.875000000000     0          
O        O      0.800600000000     0.910850000000     0.883975000000     0          
O        O      0.832000000000     0.750000000000     0.875000000000     0          
O        O      0.845800000000     0.839400000000     0.863650000000     0          
T        Si     0.917600000000     0.946800000000     0.860175000000     0          
T        Si     0.774900000000     0.948850000000     0.859175000000     0          
T        Si     0.813100000000     0.798100000000     0.858775000000     0          
T        Si     0.843400000000     0.885050000000     0.983575000000     0          
O        O      0.040200000000     0.578200000000     0.997225000000     0          
O        O      0.081600000000     0.500000000000     0.750000000000     0          
O        O      0.119700000000     0.580150000000     0.756000000000     0          
O        O      0.273000000000     0.560400000000     0.990600000000     0          
O        O      0.213600000000     0.500000000000     0.750000000000     0          
O        O      0.199400000000     0.589150000000     0.758975000000     0          
O        O      0.168000000000     0.750000000000     0.750000000000     0          
O        O      0.154200000000     0.660600000000     0.988650000000     0          
T        Si     0.082400000000     0.553200000000     0.985175000000     0          
T        Si     0.225100000000     0.551150000000     0.984175000000     0          
T        Si     0.186900000000     0.701900000000     0.983775000000     0          
T        Si     0.156600000000     0.614950000000     0.858575000000     0          
O        O      0.959800000000     0.578200000000     0.877775000000     0          
O        O      0.880300000000     0.580150000000     0.869000000000     0          
O        O      0.727000000000     0.560400000000     0.884400000000     0          
O        O      0.800600000000     0.589150000000     0.866025000000     0          
O        O      0.845800000000     0.660600000000     0.886350000000     0          
T        Si     0.917600000000     0.553200000000     0.889825000000     0          
T        Si     0.774900000000     0.551150000000     0.890825000000     0          
T        Si     0.813100000000     0.701900000000     0.891225000000     0          
T        Si     0.843400000000     0.614950000000     0.766425000000     0          
O        O      0.040200000000     0.921800000000     0.752775000000     0          
O        O      0.119700000000     0.919850000000     0.994000000000     0          
O        O      0.273000000000     0.939600000000     0.759400000000     0          
O        O      0.199400000000     0.910850000000     0.991025000000     0          
O        O      0.154200000000     0.839400000000     0.761350000000     0          
T        Si     0.082400000000     0.946800000000     0.764825000000     0          
T        Si     0.225100000000     0.948850000000     0.765825000000     0          
T        Si     0.186900000000     0.798100000000     0.766225000000     0          
T        Si     0.156600000000     0.885050000000     0.891425000000     0          
O        O      0.588000000000     0.804750000000     0.937500000000     0          
O        O      0.540200000000     0.828200000000     0.877775000000     0          
O        O      0.581600000000     0.750000000000     0.875000000000     0          
O        O      0.619700000000     0.830150000000     0.869000000000     0          
O        O      0.714100000000     0.805350000000     0.937500000000     0          
O        O      0.773000000000     0.810400000000     0.884400000000     0          
O        O      0.713600000000     0.750000000000     0.875000000000     0          
O        O      0.699400000000     0.839150000000     0.866025000000     0          
O        O      0.699100000000     0.957550000000     0.937500000000     0          
O        O      0.668000000000     0.500000000000     0.875000000000     0          
O        O      0.654200000000     0.910600000000     0.886350000000     0          
O        O      0.653400000000     0.880450000000     0.812500000000     0          
O        O      0.500000000000     0.694400000000     0.937500000000     0          
O        O      0.500000000000     0.750000000000     0.875000000000     0          
T        Si     0.582400000000     0.803200000000     0.889825000000     0          
T        Si     0.725100000000     0.801150000000     0.890825000000     0          
T        Si     0.686900000000     0.951900000000     0.891225000000     0          
T        Si     0.656600000000     0.864950000000     0.766425000000     0          
T        Si     0.500000000000     0.696750000000     0.889575000000     0          
O        O      0.412000000000     0.695250000000     0.812500000000     0          
O        O      0.459800000000     0.671800000000     0.752775000000     0          
O        O      0.418400000000     0.750000000000     0.750000000000     0          
O        O      0.380300000000     0.669850000000     0.994000000000     0          
O        O      0.285900000000     0.694650000000     0.812500000000     0          
O        O      0.227000000000     0.689600000000     0.759400000000     0          
O        O      0.286400000000     0.750000000000     0.750000000000     0          
O        O      0.300600000000     0.660850000000     0.991025000000     0          
O        O      0.300900000000     0.542450000000     0.812500000000     0          
O        O      0.332000000000     0.500000000000     0.750000000000     0          
O        O      0.345800000000     0.589400000000     0.761350000000     0          
O        O      0.346600000000     0.619550000000     0.937500000000     0          
O        O      0.500000000000     0.805600000000     0.812500000000     0          
O        O      0.500000000000     0.750000000000     0.750000000000     0          
T        Si     0.417600000000     0.696800000000     0.764825000000     0          
T        Si     0.274900000000     0.698850000000     0.765825000000     0          
T        Si     0.313100000000     0.548100000000     0.766225000000     0          
T        Si     0.343400000000     0.635050000000     0.891425000000     0          
T        Si     0.500000000000     0.803250000000     0.764575000000     0          
O        O      0.588000000000     0.695250000000     0.812500000000     0          
O        O      0.540200000000     0.671800000000     0.872225000000     0          
O        O      0.619700000000     0.669850000000     0.881000000000     0          
O        O      0.714100000000     0.694650000000     0.812500000000     0          
O        O      0.773000000000     0.689600000000     0.865600000000     0          
O        O      0.699400000000     0.660850000000     0.883975000000     0          
O        O      0.699100000000     0.542450000000     0.812500000000     0          
O        O      0.654200000000     0.589400000000     0.863650000000     0          
O        O      0.653400000000     0.619550000000     0.937500000000     0          
T        Si     0.582400000000     0.696800000000     0.860175000000     0          
T        Si     0.725100000000     0.698850000000     0.859175000000     0          
T        Si     0.686900000000     0.548100000000     0.858775000000     0          
T        Si     0.656600000000     0.635050000000     0.983575000000     0          
T        Si     0.500000000000     0.803250000000     0.860425000000     0          
O        O      0.412000000000     0.804750000000     0.937500000000     0          
O        O      0.459800000000     0.828200000000     0.997225000000     0          
O        O      0.380300000000     0.830150000000     0.756000000000     0          
O        O      0.285900000000     0.805350000000     0.937500000000     0          
O        O      0.227000000000     0.810400000000     0.990600000000     0          
O        O      0.300600000000     0.839150000000     0.758975000000     0          
O        O      0.300900000000     0.957550000000     0.937500000000     0          
O        O      0.345800000000     0.910600000000     0.988650000000     0          
O        O      0.346600000000     0.880450000000     0.812500000000     0          
T        Si     0.417600000000     0.803200000000     0.985175000000     0          
T        Si     0.274900000000     0.801150000000     0.984175000000     0          
T        Si     0.313100000000     0.951900000000     0.983775000000     0          
T        Si     0.343400000000     0.864950000000     0.858575000000     0          
T        Si     0.500000000000     0.696750000000     0.985425000000     0          
O        O      0.459800000000     0.671800000000     0.872225000000     0          
O        O      0.418400000000     0.750000000000     0.875000000000     0          
O        O      0.380300000000     0.669850000000     0.881000000000     0          
O        O      0.227000000000     0.689600000000     0.865600000000     0          
O        O      0.286400000000     0.750000000000     0.875000000000     0          
O        O      0.300600000000     0.660850000000     0.883975000000     0          
O        O      0.332000000000     0.500000000000     0.875000000000     0          
O        O      0.345800000000     0.589400000000     0.863650000000     0          
T        Si     0.417600000000     0.696800000000     0.860175000000     0          
T        Si     0.274900000000     0.698850000000     0.859175000000     0          
T        Si     0.313100000000     0.548100000000     0.858775000000     0          
T        Si     0.343400000000     0.635050000000     0.983575000000     0          
O        O      0.540200000000     0.828200000000     0.997225000000     0          
O        O      0.581600000000     0.750000000000     0.750000000000     0          
O        O      0.619700000000     0.830150000000     0.756000000000     0          
O        O      0.773000000000     0.810400000000     0.990600000000     0          
O        O      0.713600000000     0.750000000000     0.750000000000     0          
O        O      0.699400000000     0.839150000000     0.758975000000     0          
O        O      0.668000000000     0.500000000000     0.750000000000     0          
O        O      0.654200000000     0.910600000000     0.988650000000     0          
T        Si     0.582400000000     0.803200000000     0.985175000000     0          
T        Si     0.725100000000     0.801150000000     0.984175000000     0          
T        Si     0.686900000000     0.951900000000     0.983775000000     0          
T        Si     0.656600000000     0.864950000000     0.858575000000     0          
O        O      0.459800000000     0.828200000000     0.877775000000     0          
O        O      0.380300000000     0.830150000000     0.869000000000     0          
O        O      0.227000000000     0.810400000000     0.884400000000     0          
O        O      0.300600000000     0.839150000000     0.866025000000     0          
O        O      0.345800000000     0.910600000000     0.886350000000     0          
T        Si     0.417600000000     0.803200000000     0.889825000000     0          
T        Si     0.274900000000     0.801150000000     0.890825000000     0          
T        Si     0.313100000000     0.951900000000     0.891225000000     0          
T        Si     0.343400000000     0.864950000000     0.766425000000     0          
O        O      0.540200000000     0.671800000000     0.752775000000     0          
O        O      0.619700000000     0.669850000000     0.994000000000     0          
O        O      0.773000000000     0.689600000000     0.759400000000     0          
O        O      0.699400000000     0.660850000000     0.991025000000     0          
O        O      0.654200000000     0.589400000000     0.761350000000     0          
T        Si     0.582400000000     0.696800000000     0.764825000000     0          
T        Si     0.725100000000     0.698850000000     0.765825000000     0          
T        Si     0.686900000000     0.548100000000     0.766225000000     0          
T        Si     0.656600000000     0.635050000000     0.891425000000     0          


