data_zeolite

_audit_creation_method RASPA-1.0
_audit_creation_date 2022-1-5
_audit_author_name ''

_cell_length_a    20.7654
_cell_length_b    13.9047
_cell_length_c    12.4002
_cell_angle_alpha 90
_cell_angle_beta  101.32
_cell_angle_gamma 90
_cell_volume      42129

_symmetry_cell_setting          monoclinic
_symmetry_space_group_name_Hall 'P 1'
_symmetry_space_group_name_H-M  'P 1'
_symmetry_Int_Tables_number     1

_symmetry_equiv_pos_as_xyz 'x,y,z'

loop_
_atom_site_label
_atom_site_type_symbol
_atom_site_fract_x
_atom_site_fract_y
_atom_site_fract_z
_atom_site_charge
Si       Si     0.255230000000     0.193410000000     0.043570000000     0          
Si       Si     0.187060000000     0.154150000000     0.051353333333     0          
Si       Si     0.145910000000     0.103780000000     0.100173333333     0          
Si       Si     0.142960000000     0.103010000000     0.183653333333     0          
Si       Si     0.046025000000     0.099075000000     0.243516666667     0          
Si       Si     0.072255000000     0.147035000000     0.180956666667     0          
Si       Si     0.079760000000     0.148300000000     0.314503333333     0          
Si       Si     0.075820000000     0.148010000000     0.064800000000     0          
Si       Si     0.149795000000     0.103255000000     0.317086666667     0          
Si       Si     0.174395000000     0.153410000000     0.255346666667     0          
Si       Si     0.467310000000     0.098660000000     0.220696666667     0          
Si       Si     0.100700000000     0.250000000000     0.169446666667     0          
Si       Si     0.136960000000     0.250000000000     0.243970000000     0          
Si       Si     0.143645000000     0.250000000000     0.033630000000     0          
Si       Si     0.090785000000     0.250000000000     0.086200000000     0          
Si       Si     0.091705000000     0.250000000000     0.294276666667     0          
Si       Si     0.120785000000     0.000000000000     0.076843333333     0          
Si       Si     0.127680000000     0.000000000000     0.198600000000     0          
Si       Si     0.080570000000     0.000000000000     0.250640000000     0          
Si       Si     0.120500000000     0.000000000000     0.326500000000     0          
Si       Si     0.430520000000     0.000000000000     0.205440000000     0          
Si       Si     0.244770000000     0.193410000000     0.289763333333     0          
Si       Si     0.312940000000     0.154150000000     0.281980000000     0          
Si       Si     0.354090000000     0.103780000000     0.233160000000     0          
Si       Si     0.357040000000     0.103010000000     0.149680000000     0          
Si       Si     0.453975000000     0.099075000000     0.089816666667     0          
Si       Si     0.427745000000     0.147035000000     0.152376666667     0          
Si       Si     0.420240000000     0.148300000000     0.018830000000     0          
Si       Si     0.424180000000     0.148010000000     0.268533333333     0          
Si       Si     0.350205000000     0.103255000000     0.016246666667     0          
Si       Si     0.325605000000     0.153410000000     0.077986666667     0          
Si       Si     0.032690000000     0.098660000000     0.112636666667     0          
Si       Si     0.399300000000     0.250000000000     0.163886666667     0          
Si       Si     0.363040000000     0.250000000000     0.089363333333     0          
Si       Si     0.356355000000     0.250000000000     0.299703333333     0          
Si       Si     0.409215000000     0.250000000000     0.247133333333     0          
Si       Si     0.408295000000     0.250000000000     0.039056666667     0          
Si       Si     0.379215000000     0.000000000000     0.256490000000     0          
Si       Si     0.372320000000     0.000000000000     0.134733333333     0          
Si       Si     0.419430000000     0.000000000000     0.082693333333     0          
Si       Si     0.379500000000     0.000000000000     0.006833333333     0          
Si       Si     0.069480000000     0.000000000000     0.127893333333     0          
Si       Si     0.244770000000     0.306590000000     0.289763333333     0          
Si       Si     0.312940000000     0.345850000000     0.281980000000     0          
Si       Si     0.354090000000     0.396220000000     0.233160000000     0          
Si       Si     0.357040000000     0.396990000000     0.149680000000     0          
Si       Si     0.453975000000     0.400925000000     0.089816666667     0          
Si       Si     0.427745000000     0.352965000000     0.152376666667     0          
Si       Si     0.420240000000     0.351700000000     0.018830000000     0          
Si       Si     0.424180000000     0.351990000000     0.268533333333     0          
Si       Si     0.350205000000     0.396745000000     0.016246666667     0          
Si       Si     0.325605000000     0.346590000000     0.077986666667     0          
Si       Si     0.032690000000     0.401340000000     0.112636666667     0          
Si       Si     0.255230000000     0.306590000000     0.043570000000     0          
Si       Si     0.187060000000     0.345850000000     0.051353333333     0          
Si       Si     0.145910000000     0.396220000000     0.100173333333     0          
Si       Si     0.142960000000     0.396990000000     0.183653333333     0          
Si       Si     0.046025000000     0.400925000000     0.243516666667     0          
Si       Si     0.072255000000     0.352965000000     0.180956666667     0          
Si       Si     0.079760000000     0.351700000000     0.314503333333     0          
Si       Si     0.075820000000     0.351990000000     0.064800000000     0          
Si       Si     0.149795000000     0.396745000000     0.317086666667     0          
Si       Si     0.174395000000     0.346590000000     0.255346666667     0          
Si       Si     0.467310000000     0.401340000000     0.220696666667     0          
Si       Si     0.255230000000     0.193410000000     0.376903333333     0          
Si       Si     0.187060000000     0.154150000000     0.384686666667     0          
Si       Si     0.145910000000     0.103780000000     0.433506666667     0          
Si       Si     0.142960000000     0.103010000000     0.516986666667     0          
Si       Si     0.046025000000     0.099075000000     0.576850000000     0          
Si       Si     0.072255000000     0.147035000000     0.514290000000     0          
Si       Si     0.079760000000     0.148300000000     0.647836666667     0          
Si       Si     0.075820000000     0.148010000000     0.398133333333     0          
Si       Si     0.149795000000     0.103255000000     0.650420000000     0          
Si       Si     0.174395000000     0.153410000000     0.588680000000     0          
Si       Si     0.467310000000     0.098660000000     0.554030000000     0          
Si       Si     0.100700000000     0.250000000000     0.502780000000     0          
Si       Si     0.136960000000     0.250000000000     0.577303333333     0          
Si       Si     0.143645000000     0.250000000000     0.366963333333     0          
Si       Si     0.090785000000     0.250000000000     0.419533333333     0          
Si       Si     0.091705000000     0.250000000000     0.627610000000     0          
Si       Si     0.120785000000     0.000000000000     0.410176666667     0          
Si       Si     0.127680000000     0.000000000000     0.531933333333     0          
Si       Si     0.080570000000     0.000000000000     0.583973333333     0          
Si       Si     0.120500000000     0.000000000000     0.659833333333     0          
Si       Si     0.430520000000     0.000000000000     0.538773333333     0          
Si       Si     0.244770000000     0.193410000000     0.623096666667     0          
Si       Si     0.312940000000     0.154150000000     0.615313333333     0          
Si       Si     0.354090000000     0.103780000000     0.566493333333     0          
Si       Si     0.357040000000     0.103010000000     0.483013333333     0          
Si       Si     0.453975000000     0.099075000000     0.423150000000     0          
Si       Si     0.427745000000     0.147035000000     0.485710000000     0          
Si       Si     0.420240000000     0.148300000000     0.352163333333     0          
Si       Si     0.424180000000     0.148010000000     0.601866666667     0          
Si       Si     0.350205000000     0.103255000000     0.349580000000     0          
Si       Si     0.325605000000     0.153410000000     0.411320000000     0          
Si       Si     0.032690000000     0.098660000000     0.445970000000     0          
Si       Si     0.399300000000     0.250000000000     0.497220000000     0          
Si       Si     0.363040000000     0.250000000000     0.422696666667     0          
Si       Si     0.356355000000     0.250000000000     0.633036666667     0          
Si       Si     0.409215000000     0.250000000000     0.580466666667     0          
Si       Si     0.408295000000     0.250000000000     0.372390000000     0          
Si       Si     0.379215000000     0.000000000000     0.589823333333     0          
Si       Si     0.372320000000     0.000000000000     0.468066666667     0          
Si       Si     0.419430000000     0.000000000000     0.416026666667     0          
Si       Si     0.379500000000     0.000000000000     0.340166666667     0          
Si       Si     0.069480000000     0.000000000000     0.461226666667     0          
Si       Si     0.244770000000     0.306590000000     0.623096666667     0          
Si       Si     0.312940000000     0.345850000000     0.615313333333     0          
Si       Si     0.354090000000     0.396220000000     0.566493333333     0          
Si       Si     0.357040000000     0.396990000000     0.483013333333     0          
Si       Si     0.453975000000     0.400925000000     0.423150000000     0          
Si       Si     0.427745000000     0.352965000000     0.485710000000     0          
Si       Si     0.420240000000     0.351700000000     0.352163333333     0          
Si       Si     0.424180000000     0.351990000000     0.601866666667     0          
Si       Si     0.350205000000     0.396745000000     0.349580000000     0          
Si       Si     0.325605000000     0.346590000000     0.411320000000     0          
Si       Si     0.032690000000     0.401340000000     0.445970000000     0          
Si       Si     0.255230000000     0.306590000000     0.376903333333     0          
Si       Si     0.187060000000     0.345850000000     0.384686666667     0          
Si       Si     0.145910000000     0.396220000000     0.433506666667     0          
Si       Si     0.142960000000     0.396990000000     0.516986666667     0          
Si       Si     0.046025000000     0.400925000000     0.576850000000     0          
Si       Si     0.072255000000     0.352965000000     0.514290000000     0          
Si       Si     0.079760000000     0.351700000000     0.647836666667     0          
Si       Si     0.075820000000     0.351990000000     0.398133333333     0          
Si       Si     0.149795000000     0.396745000000     0.650420000000     0          
Si       Si     0.174395000000     0.346590000000     0.588680000000     0          
Si       Si     0.467310000000     0.401340000000     0.554030000000     0          
Si       Si     0.255230000000     0.193410000000     0.710236666667     0          
Si       Si     0.187060000000     0.154150000000     0.718020000000     0          
Si       Si     0.145910000000     0.103780000000     0.766840000000     0          
Si       Si     0.142960000000     0.103010000000     0.850320000000     0          
Si       Si     0.046025000000     0.099075000000     0.910183333333     0          
Si       Si     0.072255000000     0.147035000000     0.847623333333     0          
Si       Si     0.079760000000     0.148300000000     0.981170000000     0          
Si       Si     0.075820000000     0.148010000000     0.731466666667     0          
Si       Si     0.149795000000     0.103255000000     0.983753333333     0          
Si       Si     0.174395000000     0.153410000000     0.922013333333     0          
Si       Si     0.467310000000     0.098660000000     0.887363333333     0          
Si       Si     0.100700000000     0.250000000000     0.836113333333     0          
Si       Si     0.136960000000     0.250000000000     0.910636666667     0          
Si       Si     0.143645000000     0.250000000000     0.700296666667     0          
Si       Si     0.090785000000     0.250000000000     0.752866666667     0          
Si       Si     0.091705000000     0.250000000000     0.960943333333     0          
Si       Si     0.120785000000     0.000000000000     0.743510000000     0          
Si       Si     0.127680000000     0.000000000000     0.865266666667     0          
Si       Si     0.080570000000     0.000000000000     0.917306666667     0          
Si       Si     0.120500000000     0.000000000000     0.993166666667     0          
Si       Si     0.430520000000     0.000000000000     0.872106666667     0          
Si       Si     0.244770000000     0.193410000000     0.956430000000     0          
Si       Si     0.312940000000     0.154150000000     0.948646666667     0          
Si       Si     0.354090000000     0.103780000000     0.899826666667     0          
Si       Si     0.357040000000     0.103010000000     0.816346666667     0          
Si       Si     0.453975000000     0.099075000000     0.756483333333     0          
Si       Si     0.427745000000     0.147035000000     0.819043333333     0          
Si       Si     0.420240000000     0.148300000000     0.685496666667     0          
Si       Si     0.424180000000     0.148010000000     0.935200000000     0          
Si       Si     0.350205000000     0.103255000000     0.682913333333     0          
Si       Si     0.325605000000     0.153410000000     0.744653333333     0          
Si       Si     0.032690000000     0.098660000000     0.779303333333     0          
Si       Si     0.399300000000     0.250000000000     0.830553333333     0          
Si       Si     0.363040000000     0.250000000000     0.756030000000     0          
Si       Si     0.356355000000     0.250000000000     0.966370000000     0          
Si       Si     0.409215000000     0.250000000000     0.913800000000     0          
Si       Si     0.408295000000     0.250000000000     0.705723333333     0          
Si       Si     0.379215000000     0.000000000000     0.923156666667     0          
Si       Si     0.372320000000     0.000000000000     0.801400000000     0          
Si       Si     0.419430000000     0.000000000000     0.749360000000     0          
Si       Si     0.379500000000     0.000000000000     0.673500000000     0          
Si       Si     0.069480000000     0.000000000000     0.794560000000     0          
Si       Si     0.244770000000     0.306590000000     0.956430000000     0          
Si       Si     0.312940000000     0.345850000000     0.948646666667     0          
Si       Si     0.354090000000     0.396220000000     0.899826666667     0          
Si       Si     0.357040000000     0.396990000000     0.816346666667     0          
Si       Si     0.453975000000     0.400925000000     0.756483333333     0          
Si       Si     0.427745000000     0.352965000000     0.819043333333     0          
Si       Si     0.420240000000     0.351700000000     0.685496666667     0          
Si       Si     0.424180000000     0.351990000000     0.935200000000     0          
Si       Si     0.350205000000     0.396745000000     0.682913333333     0          
Si       Si     0.325605000000     0.346590000000     0.744653333333     0          
Si       Si     0.032690000000     0.401340000000     0.779303333333     0          
Si       Si     0.255230000000     0.306590000000     0.710236666667     0          
Si       Si     0.187060000000     0.345850000000     0.718020000000     0          
Si       Si     0.145910000000     0.396220000000     0.766840000000     0          
Si       Si     0.142960000000     0.396990000000     0.850320000000     0          
Si       Si     0.046025000000     0.400925000000     0.910183333333     0          
Si       Si     0.072255000000     0.352965000000     0.847623333333     0          
Si       Si     0.079760000000     0.351700000000     0.981170000000     0          
Si       Si     0.075820000000     0.351990000000     0.731466666667     0          
Si       Si     0.149795000000     0.396745000000     0.983753333333     0          
Si       Si     0.174395000000     0.346590000000     0.922013333333     0          
Si       Si     0.467310000000     0.401340000000     0.887363333333     0          
Si       Si     0.255230000000     0.693410000000     0.043570000000     0          
Si       Si     0.187060000000     0.654150000000     0.051353333333     0          
Si       Si     0.145910000000     0.603780000000     0.100173333333     0          
Si       Si     0.142960000000     0.603010000000     0.183653333333     0          
Si       Si     0.046025000000     0.599075000000     0.243516666667     0          
Si       Si     0.072255000000     0.647035000000     0.180956666667     0          
Si       Si     0.079760000000     0.648300000000     0.314503333333     0          
Si       Si     0.075820000000     0.648010000000     0.064800000000     0          
Si       Si     0.149795000000     0.603255000000     0.317086666667     0          
Si       Si     0.174395000000     0.653410000000     0.255346666667     0          
Si       Si     0.467310000000     0.598660000000     0.220696666667     0          
Si       Si     0.100700000000     0.750000000000     0.169446666667     0          
Si       Si     0.136960000000     0.750000000000     0.243970000000     0          
Si       Si     0.143645000000     0.750000000000     0.033630000000     0          
Si       Si     0.090785000000     0.750000000000     0.086200000000     0          
Si       Si     0.091705000000     0.750000000000     0.294276666667     0          
Si       Si     0.120785000000     0.500000000000     0.076843333333     0          
Si       Si     0.127680000000     0.500000000000     0.198600000000     0          
Si       Si     0.080570000000     0.500000000000     0.250640000000     0          
Si       Si     0.120500000000     0.500000000000     0.326500000000     0          
Si       Si     0.430520000000     0.500000000000     0.205440000000     0          
Si       Si     0.244770000000     0.693410000000     0.289763333333     0          
Si       Si     0.312940000000     0.654150000000     0.281980000000     0          
Si       Si     0.354090000000     0.603780000000     0.233160000000     0          
Si       Si     0.357040000000     0.603010000000     0.149680000000     0          
Si       Si     0.453975000000     0.599075000000     0.089816666667     0          
Si       Si     0.427745000000     0.647035000000     0.152376666667     0          
Si       Si     0.420240000000     0.648300000000     0.018830000000     0          
Si       Si     0.424180000000     0.648010000000     0.268533333333     0          
Si       Si     0.350205000000     0.603255000000     0.016246666667     0          
Si       Si     0.325605000000     0.653410000000     0.077986666667     0          
Si       Si     0.032690000000     0.598660000000     0.112636666667     0          
Si       Si     0.399300000000     0.750000000000     0.163886666667     0          
Si       Si     0.363040000000     0.750000000000     0.089363333333     0          
Si       Si     0.356355000000     0.750000000000     0.299703333333     0          
Si       Si     0.409215000000     0.750000000000     0.247133333333     0          
Si       Si     0.408295000000     0.750000000000     0.039056666667     0          
Si       Si     0.379215000000     0.500000000000     0.256490000000     0          
Si       Si     0.372320000000     0.500000000000     0.134733333333     0          
Si       Si     0.419430000000     0.500000000000     0.082693333333     0          
Si       Si     0.379500000000     0.500000000000     0.006833333333     0          
Si       Si     0.069480000000     0.500000000000     0.127893333333     0          
Si       Si     0.244770000000     0.806590000000     0.289763333333     0          
Si       Si     0.312940000000     0.845850000000     0.281980000000     0          
Si       Si     0.354090000000     0.896220000000     0.233160000000     0          
Si       Si     0.357040000000     0.896990000000     0.149680000000     0          
Si       Si     0.453975000000     0.900925000000     0.089816666667     0          
Si       Si     0.427745000000     0.852965000000     0.152376666667     0          
Si       Si     0.420240000000     0.851700000000     0.018830000000     0          
Si       Si     0.424180000000     0.851990000000     0.268533333333     0          
Si       Si     0.350205000000     0.896745000000     0.016246666667     0          
Si       Si     0.325605000000     0.846590000000     0.077986666667     0          
Si       Si     0.032690000000     0.901340000000     0.112636666667     0          
Si       Si     0.255230000000     0.806590000000     0.043570000000     0          
Si       Si     0.187060000000     0.845850000000     0.051353333333     0          
Si       Si     0.145910000000     0.896220000000     0.100173333333     0          
Si       Si     0.142960000000     0.896990000000     0.183653333333     0          
Si       Si     0.046025000000     0.900925000000     0.243516666667     0          
Si       Si     0.072255000000     0.852965000000     0.180956666667     0          
Si       Si     0.079760000000     0.851700000000     0.314503333333     0          
Si       Si     0.075820000000     0.851990000000     0.064800000000     0          
Si       Si     0.149795000000     0.896745000000     0.317086666667     0          
Si       Si     0.174395000000     0.846590000000     0.255346666667     0          
Si       Si     0.467310000000     0.901340000000     0.220696666667     0          
Si       Si     0.255230000000     0.693410000000     0.376903333333     0          
Si       Si     0.187060000000     0.654150000000     0.384686666667     0          
Si       Si     0.145910000000     0.603780000000     0.433506666667     0          
Si       Si     0.142960000000     0.603010000000     0.516986666667     0          
Si       Si     0.046025000000     0.599075000000     0.576850000000     0          
Si       Si     0.072255000000     0.647035000000     0.514290000000     0          
Si       Si     0.079760000000     0.648300000000     0.647836666667     0          
Si       Si     0.075820000000     0.648010000000     0.398133333333     0          
Si       Si     0.149795000000     0.603255000000     0.650420000000     0          
Si       Si     0.174395000000     0.653410000000     0.588680000000     0          
Si       Si     0.467310000000     0.598660000000     0.554030000000     0          
Si       Si     0.100700000000     0.750000000000     0.502780000000     0          
Si       Si     0.136960000000     0.750000000000     0.577303333333     0          
Si       Si     0.143645000000     0.750000000000     0.366963333333     0          
Si       Si     0.090785000000     0.750000000000     0.419533333333     0          
Si       Si     0.091705000000     0.750000000000     0.627610000000     0          
Si       Si     0.120785000000     0.500000000000     0.410176666667     0          
Si       Si     0.127680000000     0.500000000000     0.531933333333     0          
Si       Si     0.080570000000     0.500000000000     0.583973333333     0          
Si       Si     0.120500000000     0.500000000000     0.659833333333     0          
Si       Si     0.430520000000     0.500000000000     0.538773333333     0          
Si       Si     0.244770000000     0.693410000000     0.623096666667     0          
Si       Si     0.312940000000     0.654150000000     0.615313333333     0          
Si       Si     0.354090000000     0.603780000000     0.566493333333     0          
Si       Si     0.357040000000     0.603010000000     0.483013333333     0          
Si       Si     0.453975000000     0.599075000000     0.423150000000     0          
Si       Si     0.427745000000     0.647035000000     0.485710000000     0          
Si       Si     0.420240000000     0.648300000000     0.352163333333     0          
Si       Si     0.424180000000     0.648010000000     0.601866666667     0          
Si       Si     0.350205000000     0.603255000000     0.349580000000     0          
Si       Si     0.325605000000     0.653410000000     0.411320000000     0          
Si       Si     0.032690000000     0.598660000000     0.445970000000     0          
Si       Si     0.399300000000     0.750000000000     0.497220000000     0          
Si       Si     0.363040000000     0.750000000000     0.422696666667     0          
Si       Si     0.356355000000     0.750000000000     0.633036666667     0          
Si       Si     0.409215000000     0.750000000000     0.580466666667     0          
Si       Si     0.408295000000     0.750000000000     0.372390000000     0          
Si       Si     0.379215000000     0.500000000000     0.589823333333     0          
Si       Si     0.372320000000     0.500000000000     0.468066666667     0          
Si       Si     0.419430000000     0.500000000000     0.416026666667     0          
Si       Si     0.379500000000     0.500000000000     0.340166666667     0          
Si       Si     0.069480000000     0.500000000000     0.461226666667     0          
Si       Si     0.244770000000     0.806590000000     0.623096666667     0          
Si       Si     0.312940000000     0.845850000000     0.615313333333     0          
Si       Si     0.354090000000     0.896220000000     0.566493333333     0          
Si       Si     0.357040000000     0.896990000000     0.483013333333     0          
Si       Si     0.453975000000     0.900925000000     0.423150000000     0          
Si       Si     0.427745000000     0.852965000000     0.485710000000     0          
Si       Si     0.420240000000     0.851700000000     0.352163333333     0          
Si       Si     0.424180000000     0.851990000000     0.601866666667     0          
Si       Si     0.350205000000     0.896745000000     0.349580000000     0          
Si       Si     0.325605000000     0.846590000000     0.411320000000     0          
Si       Si     0.032690000000     0.901340000000     0.445970000000     0          
Si       Si     0.255230000000     0.806590000000     0.376903333333     0          
Si       Si     0.187060000000     0.845850000000     0.384686666667     0          
Si       Si     0.145910000000     0.896220000000     0.433506666667     0          
Si       Si     0.142960000000     0.896990000000     0.516986666667     0          
Si       Si     0.046025000000     0.900925000000     0.576850000000     0          
Si       Si     0.072255000000     0.852965000000     0.514290000000     0          
Si       Si     0.079760000000     0.851700000000     0.647836666667     0          
Si       Si     0.075820000000     0.851990000000     0.398133333333     0          
Si       Si     0.149795000000     0.896745000000     0.650420000000     0          
Si       Si     0.174395000000     0.846590000000     0.588680000000     0          
Si       Si     0.467310000000     0.901340000000     0.554030000000     0          
Si       Si     0.255230000000     0.693410000000     0.710236666667     0          
Si       Si     0.187060000000     0.654150000000     0.718020000000     0          
Si       Si     0.145910000000     0.603780000000     0.766840000000     0          
Si       Si     0.142960000000     0.603010000000     0.850320000000     0          
Si       Si     0.046025000000     0.599075000000     0.910183333333     0          
Si       Si     0.072255000000     0.647035000000     0.847623333333     0          
Si       Si     0.079760000000     0.648300000000     0.981170000000     0          
Si       Si     0.075820000000     0.648010000000     0.731466666667     0          
Si       Si     0.149795000000     0.603255000000     0.983753333333     0          
Si       Si     0.174395000000     0.653410000000     0.922013333333     0          
Si       Si     0.467310000000     0.598660000000     0.887363333333     0          
Si       Si     0.100700000000     0.750000000000     0.836113333333     0          
Si       Si     0.136960000000     0.750000000000     0.910636666667     0          
Si       Si     0.143645000000     0.750000000000     0.700296666667     0          
Si       Si     0.090785000000     0.750000000000     0.752866666667     0          
Si       Si     0.091705000000     0.750000000000     0.960943333333     0          
Si       Si     0.120785000000     0.500000000000     0.743510000000     0          
Si       Si     0.127680000000     0.500000000000     0.865266666667     0          
Si       Si     0.080570000000     0.500000000000     0.917306666667     0          
Si       Si     0.120500000000     0.500000000000     0.993166666667     0          
Si       Si     0.430520000000     0.500000000000     0.872106666667     0          
Si       Si     0.244770000000     0.693410000000     0.956430000000     0          
Si       Si     0.312940000000     0.654150000000     0.948646666667     0          
Si       Si     0.354090000000     0.603780000000     0.899826666667     0          
Si       Si     0.357040000000     0.603010000000     0.816346666667     0          
Si       Si     0.453975000000     0.599075000000     0.756483333333     0          
Si       Si     0.427745000000     0.647035000000     0.819043333333     0          
Si       Si     0.420240000000     0.648300000000     0.685496666667     0          
Si       Si     0.424180000000     0.648010000000     0.935200000000     0          
Si       Si     0.350205000000     0.603255000000     0.682913333333     0          
Si       Si     0.325605000000     0.653410000000     0.744653333333     0          
Si       Si     0.032690000000     0.598660000000     0.779303333333     0          
Si       Si     0.399300000000     0.750000000000     0.830553333333     0          
Si       Si     0.363040000000     0.750000000000     0.756030000000     0          
Si       Si     0.356355000000     0.750000000000     0.966370000000     0          
Si       Si     0.409215000000     0.750000000000     0.913800000000     0          
Si       Si     0.408295000000     0.750000000000     0.705723333333     0          
Si       Si     0.379215000000     0.500000000000     0.923156666667     0          
Si       Si     0.372320000000     0.500000000000     0.801400000000     0          
Si       Si     0.419430000000     0.500000000000     0.749360000000     0          
Si       Si     0.379500000000     0.500000000000     0.673500000000     0          
Si       Si     0.069480000000     0.500000000000     0.794560000000     0          
Si       Si     0.244770000000     0.806590000000     0.956430000000     0          
Si       Si     0.312940000000     0.845850000000     0.948646666667     0          
Si       Si     0.354090000000     0.896220000000     0.899826666667     0          
Si       Si     0.357040000000     0.896990000000     0.816346666667     0          
Si       Si     0.453975000000     0.900925000000     0.756483333333     0          
Si       Si     0.427745000000     0.852965000000     0.819043333333     0          
Si       Si     0.420240000000     0.851700000000     0.685496666667     0          
Si       Si     0.424180000000     0.851990000000     0.935200000000     0          
Si       Si     0.350205000000     0.896745000000     0.682913333333     0          
Si       Si     0.325605000000     0.846590000000     0.744653333333     0          
Si       Si     0.032690000000     0.901340000000     0.779303333333     0          
Si       Si     0.255230000000     0.806590000000     0.710236666667     0          
Si       Si     0.187060000000     0.845850000000     0.718020000000     0          
Si       Si     0.145910000000     0.896220000000     0.766840000000     0          
Si       Si     0.142960000000     0.896990000000     0.850320000000     0          
Si       Si     0.046025000000     0.900925000000     0.910183333333     0          
Si       Si     0.072255000000     0.852965000000     0.847623333333     0          
Si       Si     0.079760000000     0.851700000000     0.981170000000     0          
Si       Si     0.075820000000     0.851990000000     0.731466666667     0          
Si       Si     0.149795000000     0.896745000000     0.983753333333     0          
Si       Si     0.174395000000     0.846590000000     0.922013333333     0          
Si       Si     0.467310000000     0.901340000000     0.887363333333     0          
Si       Si     0.755230000000     0.193410000000     0.043570000000     0          
Si       Si     0.687060000000     0.154150000000     0.051353333333     0          
Si       Si     0.645910000000     0.103780000000     0.100173333333     0          
Si       Si     0.642960000000     0.103010000000     0.183653333333     0          
Si       Si     0.546025000000     0.099075000000     0.243516666667     0          
Si       Si     0.572255000000     0.147035000000     0.180956666667     0          
Si       Si     0.579760000000     0.148300000000     0.314503333333     0          
Si       Si     0.575820000000     0.148010000000     0.064800000000     0          
Si       Si     0.649795000000     0.103255000000     0.317086666667     0          
Si       Si     0.674395000000     0.153410000000     0.255346666667     0          
Si       Si     0.967310000000     0.098660000000     0.220696666667     0          
Si       Si     0.600700000000     0.250000000000     0.169446666667     0          
Si       Si     0.636960000000     0.250000000000     0.243970000000     0          
Si       Si     0.643645000000     0.250000000000     0.033630000000     0          
Si       Si     0.590785000000     0.250000000000     0.086200000000     0          
Si       Si     0.591705000000     0.250000000000     0.294276666667     0          
Si       Si     0.620785000000     0.000000000000     0.076843333333     0          
Si       Si     0.627680000000     0.000000000000     0.198600000000     0          
Si       Si     0.580570000000     0.000000000000     0.250640000000     0          
Si       Si     0.620500000000     0.000000000000     0.326500000000     0          
Si       Si     0.930520000000     0.000000000000     0.205440000000     0          
Si       Si     0.744770000000     0.193410000000     0.289763333333     0          
Si       Si     0.812940000000     0.154150000000     0.281980000000     0          
Si       Si     0.854090000000     0.103780000000     0.233160000000     0          
Si       Si     0.857040000000     0.103010000000     0.149680000000     0          
Si       Si     0.953975000000     0.099075000000     0.089816666667     0          
Si       Si     0.927745000000     0.147035000000     0.152376666667     0          
Si       Si     0.920240000000     0.148300000000     0.018830000000     0          
Si       Si     0.924180000000     0.148010000000     0.268533333333     0          
Si       Si     0.850205000000     0.103255000000     0.016246666667     0          
Si       Si     0.825605000000     0.153410000000     0.077986666667     0          
Si       Si     0.532690000000     0.098660000000     0.112636666667     0          
Si       Si     0.899300000000     0.250000000000     0.163886666667     0          
Si       Si     0.863040000000     0.250000000000     0.089363333333     0          
Si       Si     0.856355000000     0.250000000000     0.299703333333     0          
Si       Si     0.909215000000     0.250000000000     0.247133333333     0          
Si       Si     0.908295000000     0.250000000000     0.039056666667     0          
Si       Si     0.879215000000     0.000000000000     0.256490000000     0          
Si       Si     0.872320000000     0.000000000000     0.134733333333     0          
Si       Si     0.919430000000     0.000000000000     0.082693333333     0          
Si       Si     0.879500000000     0.000000000000     0.006833333333     0          
Si       Si     0.569480000000     0.000000000000     0.127893333333     0          
Si       Si     0.744770000000     0.306590000000     0.289763333333     0          
Si       Si     0.812940000000     0.345850000000     0.281980000000     0          
Si       Si     0.854090000000     0.396220000000     0.233160000000     0          
Si       Si     0.857040000000     0.396990000000     0.149680000000     0          
Si       Si     0.953975000000     0.400925000000     0.089816666667     0          
Si       Si     0.927745000000     0.352965000000     0.152376666667     0          
Si       Si     0.920240000000     0.351700000000     0.018830000000     0          
Si       Si     0.924180000000     0.351990000000     0.268533333333     0          
Si       Si     0.850205000000     0.396745000000     0.016246666667     0          
Si       Si     0.825605000000     0.346590000000     0.077986666667     0          
Si       Si     0.532690000000     0.401340000000     0.112636666667     0          
Si       Si     0.755230000000     0.306590000000     0.043570000000     0          
Si       Si     0.687060000000     0.345850000000     0.051353333333     0          
Si       Si     0.645910000000     0.396220000000     0.100173333333     0          
Si       Si     0.642960000000     0.396990000000     0.183653333333     0          
Si       Si     0.546025000000     0.400925000000     0.243516666667     0          
Si       Si     0.572255000000     0.352965000000     0.180956666667     0          
Si       Si     0.579760000000     0.351700000000     0.314503333333     0          
Si       Si     0.575820000000     0.351990000000     0.064800000000     0          
Si       Si     0.649795000000     0.396745000000     0.317086666667     0          
Si       Si     0.674395000000     0.346590000000     0.255346666667     0          
Si       Si     0.967310000000     0.401340000000     0.220696666667     0          
Si       Si     0.755230000000     0.193410000000     0.376903333333     0          
Si       Si     0.687060000000     0.154150000000     0.384686666667     0          
Si       Si     0.645910000000     0.103780000000     0.433506666667     0          
Si       Si     0.642960000000     0.103010000000     0.516986666667     0          
Si       Si     0.546025000000     0.099075000000     0.576850000000     0          
Si       Si     0.572255000000     0.147035000000     0.514290000000     0          
Si       Si     0.579760000000     0.148300000000     0.647836666667     0          
Si       Si     0.575820000000     0.148010000000     0.398133333333     0          
Si       Si     0.649795000000     0.103255000000     0.650420000000     0          
Si       Si     0.674395000000     0.153410000000     0.588680000000     0          
Si       Si     0.967310000000     0.098660000000     0.554030000000     0          
Si       Si     0.600700000000     0.250000000000     0.502780000000     0          
Si       Si     0.636960000000     0.250000000000     0.577303333333     0          
Si       Si     0.643645000000     0.250000000000     0.366963333333     0          
Si       Si     0.590785000000     0.250000000000     0.419533333333     0          
Si       Si     0.591705000000     0.250000000000     0.627610000000     0          
Si       Si     0.620785000000     0.000000000000     0.410176666667     0          
Si       Si     0.627680000000     0.000000000000     0.531933333333     0          
Si       Si     0.580570000000     0.000000000000     0.583973333333     0          
Si       Si     0.620500000000     0.000000000000     0.659833333333     0          
Si       Si     0.930520000000     0.000000000000     0.538773333333     0          
Si       Si     0.744770000000     0.193410000000     0.623096666667     0          
Si       Si     0.812940000000     0.154150000000     0.615313333333     0          
Si       Si     0.854090000000     0.103780000000     0.566493333333     0          
Si       Si     0.857040000000     0.103010000000     0.483013333333     0          
Si       Si     0.953975000000     0.099075000000     0.423150000000     0          
Si       Si     0.927745000000     0.147035000000     0.485710000000     0          
Si       Si     0.920240000000     0.148300000000     0.352163333333     0          
Si       Si     0.924180000000     0.148010000000     0.601866666667     0          
Si       Si     0.850205000000     0.103255000000     0.349580000000     0          
Si       Si     0.825605000000     0.153410000000     0.411320000000     0          
Si       Si     0.532690000000     0.098660000000     0.445970000000     0          
Si       Si     0.899300000000     0.250000000000     0.497220000000     0          
Si       Si     0.863040000000     0.250000000000     0.422696666667     0          
Si       Si     0.856355000000     0.250000000000     0.633036666667     0          
Si       Si     0.909215000000     0.250000000000     0.580466666667     0          
Si       Si     0.908295000000     0.250000000000     0.372390000000     0          
Si       Si     0.879215000000     0.000000000000     0.589823333333     0          
Si       Si     0.872320000000     0.000000000000     0.468066666667     0          
Si       Si     0.919430000000     0.000000000000     0.416026666667     0          
Si       Si     0.879500000000     0.000000000000     0.340166666667     0          
Si       Si     0.569480000000     0.000000000000     0.461226666667     0          
Si       Si     0.744770000000     0.306590000000     0.623096666667     0          
Si       Si     0.812940000000     0.345850000000     0.615313333333     0          
Si       Si     0.854090000000     0.396220000000     0.566493333333     0          
Si       Si     0.857040000000     0.396990000000     0.483013333333     0          
Si       Si     0.953975000000     0.400925000000     0.423150000000     0          
Si       Si     0.927745000000     0.352965000000     0.485710000000     0          
Si       Si     0.920240000000     0.351700000000     0.352163333333     0          
Si       Si     0.924180000000     0.351990000000     0.601866666667     0          
Si       Si     0.850205000000     0.396745000000     0.349580000000     0          
Si       Si     0.825605000000     0.346590000000     0.411320000000     0          
Si       Si     0.532690000000     0.401340000000     0.445970000000     0          
Si       Si     0.755230000000     0.306590000000     0.376903333333     0          
Si       Si     0.687060000000     0.345850000000     0.384686666667     0          
Si       Si     0.645910000000     0.396220000000     0.433506666667     0          
Si       Si     0.642960000000     0.396990000000     0.516986666667     0          
Si       Si     0.546025000000     0.400925000000     0.576850000000     0          
Si       Si     0.572255000000     0.352965000000     0.514290000000     0          
Si       Si     0.579760000000     0.351700000000     0.647836666667     0          
Si       Si     0.575820000000     0.351990000000     0.398133333333     0          
Si       Si     0.649795000000     0.396745000000     0.650420000000     0          
Si       Si     0.674395000000     0.346590000000     0.588680000000     0          
Si       Si     0.967310000000     0.401340000000     0.554030000000     0          
Si       Si     0.755230000000     0.193410000000     0.710236666667     0          
Si       Si     0.687060000000     0.154150000000     0.718020000000     0          
Si       Si     0.645910000000     0.103780000000     0.766840000000     0          
Si       Si     0.642960000000     0.103010000000     0.850320000000     0          
Si       Si     0.546025000000     0.099075000000     0.910183333333     0          
Si       Si     0.572255000000     0.147035000000     0.847623333333     0          
Si       Si     0.579760000000     0.148300000000     0.981170000000     0          
Si       Si     0.575820000000     0.148010000000     0.731466666667     0          
Si       Si     0.649795000000     0.103255000000     0.983753333333     0          
Si       Si     0.674395000000     0.153410000000     0.922013333333     0          
Si       Si     0.967310000000     0.098660000000     0.887363333333     0          
Si       Si     0.600700000000     0.250000000000     0.836113333333     0          
Si       Si     0.636960000000     0.250000000000     0.910636666667     0          
Si       Si     0.643645000000     0.250000000000     0.700296666667     0          
Si       Si     0.590785000000     0.250000000000     0.752866666667     0          
Si       Si     0.591705000000     0.250000000000     0.960943333333     0          
Si       Si     0.620785000000     0.000000000000     0.743510000000     0          
Si       Si     0.627680000000     0.000000000000     0.865266666667     0          
Si       Si     0.580570000000     0.000000000000     0.917306666667     0          
Si       Si     0.620500000000     0.000000000000     0.993166666667     0          
Si       Si     0.930520000000     0.000000000000     0.872106666667     0          
Si       Si     0.744770000000     0.193410000000     0.956430000000     0          
Si       Si     0.812940000000     0.154150000000     0.948646666667     0          
Si       Si     0.854090000000     0.103780000000     0.899826666667     0          
Si       Si     0.857040000000     0.103010000000     0.816346666667     0          
Si       Si     0.953975000000     0.099075000000     0.756483333333     0          
Si       Si     0.927745000000     0.147035000000     0.819043333333     0          
Si       Si     0.920240000000     0.148300000000     0.685496666667     0          
Si       Si     0.924180000000     0.148010000000     0.935200000000     0          
Si       Si     0.850205000000     0.103255000000     0.682913333333     0          
Si       Si     0.825605000000     0.153410000000     0.744653333333     0          
Si       Si     0.532690000000     0.098660000000     0.779303333333     0          
Si       Si     0.899300000000     0.250000000000     0.830553333333     0          
Si       Si     0.863040000000     0.250000000000     0.756030000000     0          
Si       Si     0.856355000000     0.250000000000     0.966370000000     0          
Si       Si     0.909215000000     0.250000000000     0.913800000000     0          
Si       Si     0.908295000000     0.250000000000     0.705723333333     0          
Si       Si     0.879215000000     0.000000000000     0.923156666667     0          
Si       Si     0.872320000000     0.000000000000     0.801400000000     0          
Si       Si     0.919430000000     0.000000000000     0.749360000000     0          
Si       Si     0.879500000000     0.000000000000     0.673500000000     0          
Si       Si     0.569480000000     0.000000000000     0.794560000000     0          
Si       Si     0.744770000000     0.306590000000     0.956430000000     0          
Si       Si     0.812940000000     0.345850000000     0.948646666667     0          
Si       Si     0.854090000000     0.396220000000     0.899826666667     0          
Si       Si     0.857040000000     0.396990000000     0.816346666667     0          
Si       Si     0.953975000000     0.400925000000     0.756483333333     0          
Si       Si     0.927745000000     0.352965000000     0.819043333333     0          
Si       Si     0.920240000000     0.351700000000     0.685496666667     0          
Si       Si     0.924180000000     0.351990000000     0.935200000000     0          
Si       Si     0.850205000000     0.396745000000     0.682913333333     0          
Si       Si     0.825605000000     0.346590000000     0.744653333333     0          
Si       Si     0.532690000000     0.401340000000     0.779303333333     0          
Si       Si     0.755230000000     0.306590000000     0.710236666667     0          
Si       Si     0.687060000000     0.345850000000     0.718020000000     0          
Si       Si     0.645910000000     0.396220000000     0.766840000000     0          
Si       Si     0.642960000000     0.396990000000     0.850320000000     0          
Si       Si     0.546025000000     0.400925000000     0.910183333333     0          
Si       Si     0.572255000000     0.352965000000     0.847623333333     0          
Si       Si     0.579760000000     0.351700000000     0.981170000000     0          
Si       Si     0.575820000000     0.351990000000     0.731466666667     0          
Si       Si     0.649795000000     0.396745000000     0.983753333333     0          
Si       Si     0.674395000000     0.346590000000     0.922013333333     0          
Si       Si     0.967310000000     0.401340000000     0.887363333333     0          
Si       Si     0.755230000000     0.693410000000     0.043570000000     0          
Si       Si     0.687060000000     0.654150000000     0.051353333333     0          
Si       Si     0.645910000000     0.603780000000     0.100173333333     0          
Si       Si     0.642960000000     0.603010000000     0.183653333333     0          
Si       Si     0.546025000000     0.599075000000     0.243516666667     0          
Si       Si     0.572255000000     0.647035000000     0.180956666667     0          
Si       Si     0.579760000000     0.648300000000     0.314503333333     0          
Si       Si     0.575820000000     0.648010000000     0.064800000000     0          
Si       Si     0.649795000000     0.603255000000     0.317086666667     0          
Si       Si     0.674395000000     0.653410000000     0.255346666667     0          
Si       Si     0.967310000000     0.598660000000     0.220696666667     0          
Si       Si     0.600700000000     0.750000000000     0.169446666667     0          
Si       Si     0.636960000000     0.750000000000     0.243970000000     0          
Si       Si     0.643645000000     0.750000000000     0.033630000000     0          
Si       Si     0.590785000000     0.750000000000     0.086200000000     0          
Si       Si     0.591705000000     0.750000000000     0.294276666667     0          
Si       Si     0.620785000000     0.500000000000     0.076843333333     0          
Si       Si     0.627680000000     0.500000000000     0.198600000000     0          
Si       Si     0.580570000000     0.500000000000     0.250640000000     0          
Si       Si     0.620500000000     0.500000000000     0.326500000000     0          
Si       Si     0.930520000000     0.500000000000     0.205440000000     0          
Si       Si     0.744770000000     0.693410000000     0.289763333333     0          
Si       Si     0.812940000000     0.654150000000     0.281980000000     0          
Si       Si     0.854090000000     0.603780000000     0.233160000000     0          
Si       Si     0.857040000000     0.603010000000     0.149680000000     0          
Si       Si     0.953975000000     0.599075000000     0.089816666667     0          
Si       Si     0.927745000000     0.647035000000     0.152376666667     0          
Si       Si     0.920240000000     0.648300000000     0.018830000000     0          
Si       Si     0.924180000000     0.648010000000     0.268533333333     0          
Si       Si     0.850205000000     0.603255000000     0.016246666667     0          
Si       Si     0.825605000000     0.653410000000     0.077986666667     0          
Si       Si     0.532690000000     0.598660000000     0.112636666667     0          
Si       Si     0.899300000000     0.750000000000     0.163886666667     0          
Si       Si     0.863040000000     0.750000000000     0.089363333333     0          
Si       Si     0.856355000000     0.750000000000     0.299703333333     0          
Si       Si     0.909215000000     0.750000000000     0.247133333333     0          
Si       Si     0.908295000000     0.750000000000     0.039056666667     0          
Si       Si     0.879215000000     0.500000000000     0.256490000000     0          
Si       Si     0.872320000000     0.500000000000     0.134733333333     0          
Si       Si     0.919430000000     0.500000000000     0.082693333333     0          
Si       Si     0.879500000000     0.500000000000     0.006833333333     0          
Si       Si     0.569480000000     0.500000000000     0.127893333333     0          
Si       Si     0.744770000000     0.806590000000     0.289763333333     0          
Si       Si     0.812940000000     0.845850000000     0.281980000000     0          
Si       Si     0.854090000000     0.896220000000     0.233160000000     0          
Si       Si     0.857040000000     0.896990000000     0.149680000000     0          
Si       Si     0.953975000000     0.900925000000     0.089816666667     0          
Si       Si     0.927745000000     0.852965000000     0.152376666667     0          
Si       Si     0.920240000000     0.851700000000     0.018830000000     0          
Si       Si     0.924180000000     0.851990000000     0.268533333333     0          
Si       Si     0.850205000000     0.896745000000     0.016246666667     0          
Si       Si     0.825605000000     0.846590000000     0.077986666667     0          
Si       Si     0.532690000000     0.901340000000     0.112636666667     0          
Si       Si     0.755230000000     0.806590000000     0.043570000000     0          
Si       Si     0.687060000000     0.845850000000     0.051353333333     0          
Si       Si     0.645910000000     0.896220000000     0.100173333333     0          
Si       Si     0.642960000000     0.896990000000     0.183653333333     0          
Si       Si     0.546025000000     0.900925000000     0.243516666667     0          
Si       Si     0.572255000000     0.852965000000     0.180956666667     0          
Si       Si     0.579760000000     0.851700000000     0.314503333333     0          
Si       Si     0.575820000000     0.851990000000     0.064800000000     0          
Si       Si     0.649795000000     0.896745000000     0.317086666667     0          
Si       Si     0.674395000000     0.846590000000     0.255346666667     0          
Si       Si     0.967310000000     0.901340000000     0.220696666667     0          
Si       Si     0.755230000000     0.693410000000     0.376903333333     0          
Si       Si     0.687060000000     0.654150000000     0.384686666667     0          
Si       Si     0.645910000000     0.603780000000     0.433506666667     0          
Si       Si     0.642960000000     0.603010000000     0.516986666667     0          
Si       Si     0.546025000000     0.599075000000     0.576850000000     0          
Si       Si     0.572255000000     0.647035000000     0.514290000000     0          
Si       Si     0.579760000000     0.648300000000     0.647836666667     0          
Si       Si     0.575820000000     0.648010000000     0.398133333333     0          
Si       Si     0.649795000000     0.603255000000     0.650420000000     0          
Si       Si     0.674395000000     0.653410000000     0.588680000000     0          
Si       Si     0.967310000000     0.598660000000     0.554030000000     0          
Si       Si     0.600700000000     0.750000000000     0.502780000000     0          
Si       Si     0.636960000000     0.750000000000     0.577303333333     0          
Si       Si     0.643645000000     0.750000000000     0.366963333333     0          
Si       Si     0.590785000000     0.750000000000     0.419533333333     0          
Si       Si     0.591705000000     0.750000000000     0.627610000000     0          
Si       Si     0.620785000000     0.500000000000     0.410176666667     0          
Si       Si     0.627680000000     0.500000000000     0.531933333333     0          
Si       Si     0.580570000000     0.500000000000     0.583973333333     0          
Si       Si     0.620500000000     0.500000000000     0.659833333333     0          
Si       Si     0.930520000000     0.500000000000     0.538773333333     0          
Si       Si     0.744770000000     0.693410000000     0.623096666667     0          
Si       Si     0.812940000000     0.654150000000     0.615313333333     0          
Si       Si     0.854090000000     0.603780000000     0.566493333333     0          
Si       Si     0.857040000000     0.603010000000     0.483013333333     0          
Si       Si     0.953975000000     0.599075000000     0.423150000000     0          
Si       Si     0.927745000000     0.647035000000     0.485710000000     0          
Si       Si     0.920240000000     0.648300000000     0.352163333333     0          
Si       Si     0.924180000000     0.648010000000     0.601866666667     0          
Si       Si     0.850205000000     0.603255000000     0.349580000000     0          
Si       Si     0.825605000000     0.653410000000     0.411320000000     0          
Si       Si     0.532690000000     0.598660000000     0.445970000000     0          
Si       Si     0.899300000000     0.750000000000     0.497220000000     0          
Si       Si     0.863040000000     0.750000000000     0.422696666667     0          
Si       Si     0.856355000000     0.750000000000     0.633036666667     0          
Si       Si     0.909215000000     0.750000000000     0.580466666667     0          
Si       Si     0.908295000000     0.750000000000     0.372390000000     0          
Si       Si     0.879215000000     0.500000000000     0.589823333333     0          
Si       Si     0.872320000000     0.500000000000     0.468066666667     0          
Si       Si     0.919430000000     0.500000000000     0.416026666667     0          
Si       Si     0.879500000000     0.500000000000     0.340166666667     0          
Si       Si     0.569480000000     0.500000000000     0.461226666667     0          
Si       Si     0.744770000000     0.806590000000     0.623096666667     0          
Si       Si     0.812940000000     0.845850000000     0.615313333333     0          
Si       Si     0.854090000000     0.896220000000     0.566493333333     0          
Si       Si     0.857040000000     0.896990000000     0.483013333333     0          
Si       Si     0.953975000000     0.900925000000     0.423150000000     0          
Si       Si     0.927745000000     0.852965000000     0.485710000000     0          
Si       Si     0.920240000000     0.851700000000     0.352163333333     0          
Si       Si     0.924180000000     0.851990000000     0.601866666667     0          
Si       Si     0.850205000000     0.896745000000     0.349580000000     0          
Si       Si     0.825605000000     0.846590000000     0.411320000000     0          
Si       Si     0.532690000000     0.901340000000     0.445970000000     0          
Si       Si     0.755230000000     0.806590000000     0.376903333333     0          
Si       Si     0.687060000000     0.845850000000     0.384686666667     0          
Si       Si     0.645910000000     0.896220000000     0.433506666667     0          
Si       Si     0.642960000000     0.896990000000     0.516986666667     0          
Si       Si     0.546025000000     0.900925000000     0.576850000000     0          
Si       Si     0.572255000000     0.852965000000     0.514290000000     0          
Si       Si     0.579760000000     0.851700000000     0.647836666667     0          
Si       Si     0.575820000000     0.851990000000     0.398133333333     0          
Si       Si     0.649795000000     0.896745000000     0.650420000000     0          
Si       Si     0.674395000000     0.846590000000     0.588680000000     0          
Si       Si     0.967310000000     0.901340000000     0.554030000000     0          
Si       Si     0.755230000000     0.693410000000     0.710236666667     0          
Si       Si     0.687060000000     0.654150000000     0.718020000000     0          
Si       Si     0.645910000000     0.603780000000     0.766840000000     0          
Si       Si     0.642960000000     0.603010000000     0.850320000000     0          
Si       Si     0.546025000000     0.599075000000     0.910183333333     0          
Si       Si     0.572255000000     0.647035000000     0.847623333333     0          
Si       Si     0.579760000000     0.648300000000     0.981170000000     0          
Si       Si     0.575820000000     0.648010000000     0.731466666667     0          
Si       Si     0.649795000000     0.603255000000     0.983753333333     0          
Si       Si     0.674395000000     0.653410000000     0.922013333333     0          
Si       Si     0.967310000000     0.598660000000     0.887363333333     0          
Si       Si     0.600700000000     0.750000000000     0.836113333333     0          
Si       Si     0.636960000000     0.750000000000     0.910636666667     0          
Si       Si     0.643645000000     0.750000000000     0.700296666667     0          
Si       Si     0.590785000000     0.750000000000     0.752866666667     0          
Si       Si     0.591705000000     0.750000000000     0.960943333333     0          
Si       Si     0.620785000000     0.500000000000     0.743510000000     0          
Si       Si     0.627680000000     0.500000000000     0.865266666667     0          
Si       Si     0.580570000000     0.500000000000     0.917306666667     0          
Si       Si     0.620500000000     0.500000000000     0.993166666667     0          
Si       Si     0.930520000000     0.500000000000     0.872106666667     0          
Si       Si     0.744770000000     0.693410000000     0.956430000000     0          
Si       Si     0.812940000000     0.654150000000     0.948646666667     0          
Si       Si     0.854090000000     0.603780000000     0.899826666667     0          
Si       Si     0.857040000000     0.603010000000     0.816346666667     0          
Si       Si     0.953975000000     0.599075000000     0.756483333333     0          
Si       Si     0.927745000000     0.647035000000     0.819043333333     0          
Si       Si     0.920240000000     0.648300000000     0.685496666667     0          
Si       Si     0.924180000000     0.648010000000     0.935200000000     0          
Si       Si     0.850205000000     0.603255000000     0.682913333333     0          
Si       Si     0.825605000000     0.653410000000     0.744653333333     0          
Si       Si     0.532690000000     0.598660000000     0.779303333333     0          
Si       Si     0.899300000000     0.750000000000     0.830553333333     0          
Si       Si     0.863040000000     0.750000000000     0.756030000000     0          
Si       Si     0.856355000000     0.750000000000     0.966370000000     0          
Si       Si     0.909215000000     0.750000000000     0.913800000000     0          
Si       Si     0.908295000000     0.750000000000     0.705723333333     0          
Si       Si     0.879215000000     0.500000000000     0.923156666667     0          
Si       Si     0.872320000000     0.500000000000     0.801400000000     0          
Si       Si     0.919430000000     0.500000000000     0.749360000000     0          
Si       Si     0.879500000000     0.500000000000     0.673500000000     0          
Si       Si     0.569480000000     0.500000000000     0.794560000000     0          
Si       Si     0.744770000000     0.806590000000     0.956430000000     0          
Si       Si     0.812940000000     0.845850000000     0.948646666667     0          
Si       Si     0.854090000000     0.896220000000     0.899826666667     0          
Si       Si     0.857040000000     0.896990000000     0.816346666667     0          
Si       Si     0.953975000000     0.900925000000     0.756483333333     0          
Si       Si     0.927745000000     0.852965000000     0.819043333333     0          
Si       Si     0.920240000000     0.851700000000     0.685496666667     0          
Si       Si     0.924180000000     0.851990000000     0.935200000000     0          
Si       Si     0.850205000000     0.896745000000     0.682913333333     0          
Si       Si     0.825605000000     0.846590000000     0.744653333333     0          
Si       Si     0.532690000000     0.901340000000     0.779303333333     0          
Si       Si     0.755230000000     0.806590000000     0.710236666667     0          
Si       Si     0.687060000000     0.845850000000     0.718020000000     0          
Si       Si     0.645910000000     0.896220000000     0.766840000000     0          
Si       Si     0.642960000000     0.896990000000     0.850320000000     0          
Si       Si     0.546025000000     0.900925000000     0.910183333333     0          
Si       Si     0.572255000000     0.852965000000     0.847623333333     0          
Si       Si     0.579760000000     0.851700000000     0.981170000000     0          
Si       Si     0.575820000000     0.851990000000     0.731466666667     0          
Si       Si     0.649795000000     0.896745000000     0.983753333333     0          
Si       Si     0.674395000000     0.846590000000     0.922013333333     0          
Si       Si     0.967310000000     0.901340000000     0.887363333333     0          
O        O      0.250000000000     0.185090000000     0.000000000000     0          
O        O      0.258630000000     0.250000000000     0.052690000000     0          
O        O      0.224985000000     0.170380000000     0.058993333333     0          
O        O      0.179480000000     0.118815000000     0.016420000000     0          
O        O      0.165820000000     0.202460000000     0.041833333333     0          
O        O      0.176445000000     0.126980000000     0.085433333333     0          
O        O      0.112740000000     0.132150000000     0.082686666667     0          
O        O      0.152590000000     0.109740000000     0.144083333333     0          
O        O      0.142035000000     0.047540000000     0.089883333333     0          
O        O      0.110445000000     0.000000000000     0.032796666667     0          
O        O      0.087905000000     0.000000000000     0.093673333333     0          
O        O      0.165510000000     0.137820000000     0.212866666667     0          
O        O      0.104655000000     0.115560000000     0.180450000000     0          
O        O      0.149105000000     0.047690000000     0.196066666667     0          
O        O      0.096220000000     0.000000000000     0.165556666667     0          
O        O      0.114985000000     0.000000000000     0.236826666667     0          
O        O      0.059970000000     0.047130000000     0.235106666667     0          
O        O      0.087920000000     0.000000000000     0.294793333333     0          
O        O      0.059730000000     0.138745000000     0.218793333333     0          
O        O      0.006560000000     0.098005000000     0.233756666667     0          
O        O      0.043125000000     0.134630000000     0.146813333333     0          
O        O      0.080210000000     0.203090000000     0.176596666667     0          
O        O      0.133985000000     0.250000000000     0.200150000000     0          
O        O      0.155625000000     0.202420000000     0.261640000000     0          
O        O      0.101005000000     0.250000000000     0.254210000000     0          
O        O      0.117790000000     0.250000000000     0.060596666667     0          
O        O      0.125120000000     0.250000000000     0.324720000000     0          
O        O      0.450165000000     0.113495000000     0.254280000000     0          
O        O      0.071370000000     0.202185000000     0.299653333333     0          
O        O      0.118135000000     0.136415000000     0.317626666667     0          
O        O      0.070175000000     0.143495000000     0.020883333333     0          
O        O      0.068880000000     0.202290000000     0.076400000000     0          
O        O      0.108495000000     0.250000000000     0.128766666667     0          
O        O      0.162270000000     0.111145000000     0.279153333333     0          
O        O      0.141580000000     0.047375000000     0.321940000000     0          
O        O      0.058200000000     0.111235000000     0.286346666667     0          
O        O      0.453840000000     0.046405000000     0.206566666667     0          
O        O      0.212890000000     0.164140000000     0.269340000000     0          
O        O      0.241370000000     0.250000000000     0.280643333333     0          
O        O      0.275015000000     0.170380000000     0.274340000000     0          
O        O      0.320520000000     0.118815000000     0.316913333333     0          
O        O      0.334180000000     0.202460000000     0.291500000000     0          
O        O      0.323555000000     0.126980000000     0.247900000000     0          
O        O      0.387260000000     0.132150000000     0.250646666667     0          
O        O      0.347410000000     0.109740000000     0.189250000000     0          
O        O      0.357965000000     0.047540000000     0.243450000000     0          
O        O      0.389555000000     0.000000000000     0.300536666667     0          
O        O      0.412095000000     0.000000000000     0.239660000000     0          
O        O      0.334490000000     0.137820000000     0.120466666667     0          
O        O      0.395345000000     0.115560000000     0.152883333333     0          
O        O      0.350895000000     0.047690000000     0.137266666667     0          
O        O      0.403780000000     0.000000000000     0.167776666667     0          
O        O      0.385015000000     0.000000000000     0.096506666667     0          
O        O      0.440030000000     0.047130000000     0.098226666667     0          
O        O      0.412080000000     0.000000000000     0.038540000000     0          
O        O      0.440270000000     0.138745000000     0.114540000000     0          
O        O      0.493440000000     0.098005000000     0.099576666667     0          
O        O      0.456875000000     0.134630000000     0.186520000000     0          
O        O      0.419790000000     0.203090000000     0.156736666667     0          
O        O      0.366015000000     0.250000000000     0.133183333333     0          
O        O      0.344375000000     0.202420000000     0.071693333333     0          
O        O      0.398995000000     0.250000000000     0.079123333333     0          
O        O      0.382210000000     0.250000000000     0.272736666667     0          
O        O      0.374880000000     0.250000000000     0.008613333333     0          
O        O      0.049835000000     0.113495000000     0.079053333333     0          
O        O      0.428630000000     0.202185000000     0.033680000000     0          
O        O      0.381865000000     0.136415000000     0.015706666667     0          
O        O      0.429825000000     0.143495000000     0.312450000000     0          
O        O      0.431120000000     0.202290000000     0.256933333333     0          
O        O      0.391505000000     0.250000000000     0.204566666667     0          
O        O      0.337730000000     0.111145000000     0.054180000000     0          
O        O      0.358420000000     0.047375000000     0.011393333333     0          
O        O      0.441800000000     0.111235000000     0.046986666667     0          
O        O      0.046160000000     0.046405000000     0.126766666667     0          
O        O      0.287110000000     0.164140000000     0.063993333333     0          
O        O      0.250000000000     0.314910000000     0.000000000000     0          
O        O      0.275015000000     0.329620000000     0.274340000000     0          
O        O      0.320520000000     0.381185000000     0.316913333333     0          
O        O      0.334180000000     0.297540000000     0.291500000000     0          
O        O      0.323555000000     0.373020000000     0.247900000000     0          
O        O      0.387260000000     0.367850000000     0.250646666667     0          
O        O      0.347410000000     0.390260000000     0.189250000000     0          
O        O      0.357965000000     0.452460000000     0.243450000000     0          
O        O      0.334490000000     0.362180000000     0.120466666667     0          
O        O      0.395345000000     0.384440000000     0.152883333333     0          
O        O      0.350895000000     0.452310000000     0.137266666667     0          
O        O      0.440030000000     0.452870000000     0.098226666667     0          
O        O      0.440270000000     0.361255000000     0.114540000000     0          
O        O      0.493440000000     0.401995000000     0.099576666667     0          
O        O      0.456875000000     0.365370000000     0.186520000000     0          
O        O      0.419790000000     0.296910000000     0.156736666667     0          
O        O      0.344375000000     0.297580000000     0.071693333333     0          
O        O      0.049835000000     0.386505000000     0.079053333333     0          
O        O      0.428630000000     0.297815000000     0.033680000000     0          
O        O      0.381865000000     0.363585000000     0.015706666667     0          
O        O      0.429825000000     0.356505000000     0.312450000000     0          
O        O      0.431120000000     0.297710000000     0.256933333333     0          
O        O      0.337730000000     0.388855000000     0.054180000000     0          
O        O      0.358420000000     0.452625000000     0.011393333333     0          
O        O      0.441800000000     0.388765000000     0.046986666667     0          
O        O      0.046160000000     0.453595000000     0.126766666667     0          
O        O      0.287110000000     0.335860000000     0.063993333333     0          
O        O      0.224985000000     0.329620000000     0.058993333333     0          
O        O      0.179480000000     0.381185000000     0.016420000000     0          
O        O      0.165820000000     0.297540000000     0.041833333333     0          
O        O      0.176445000000     0.373020000000     0.085433333333     0          
O        O      0.112740000000     0.367850000000     0.082686666667     0          
O        O      0.152590000000     0.390260000000     0.144083333333     0          
O        O      0.142035000000     0.452460000000     0.089883333333     0          
O        O      0.165510000000     0.362180000000     0.212866666667     0          
O        O      0.104655000000     0.384440000000     0.180450000000     0          
O        O      0.149105000000     0.452310000000     0.196066666667     0          
O        O      0.059970000000     0.452870000000     0.235106666667     0          
O        O      0.059730000000     0.361255000000     0.218793333333     0          
O        O      0.006560000000     0.401995000000     0.233756666667     0          
O        O      0.043125000000     0.365370000000     0.146813333333     0          
O        O      0.080210000000     0.296910000000     0.176596666667     0          
O        O      0.155625000000     0.297580000000     0.261640000000     0          
O        O      0.450165000000     0.386505000000     0.254280000000     0          
O        O      0.071370000000     0.297815000000     0.299653333333     0          
O        O      0.118135000000     0.363585000000     0.317626666667     0          
O        O      0.070175000000     0.356505000000     0.020883333333     0          
O        O      0.068880000000     0.297710000000     0.076400000000     0          
O        O      0.162270000000     0.388855000000     0.279153333333     0          
O        O      0.141580000000     0.452625000000     0.321940000000     0          
O        O      0.058200000000     0.388765000000     0.286346666667     0          
O        O      0.453840000000     0.453595000000     0.206566666667     0          
O        O      0.212890000000     0.335860000000     0.269340000000     0          
O        O      0.250000000000     0.185090000000     0.333333333333     0          
O        O      0.258630000000     0.250000000000     0.386023333333     0          
O        O      0.224985000000     0.170380000000     0.392326666667     0          
O        O      0.179480000000     0.118815000000     0.349753333333     0          
O        O      0.165820000000     0.202460000000     0.375166666667     0          
O        O      0.176445000000     0.126980000000     0.418766666667     0          
O        O      0.112740000000     0.132150000000     0.416020000000     0          
O        O      0.152590000000     0.109740000000     0.477416666667     0          
O        O      0.142035000000     0.047540000000     0.423216666667     0          
O        O      0.110445000000     0.000000000000     0.366130000000     0          
O        O      0.087905000000     0.000000000000     0.427006666667     0          
O        O      0.165510000000     0.137820000000     0.546200000000     0          
O        O      0.104655000000     0.115560000000     0.513783333333     0          
O        O      0.149105000000     0.047690000000     0.529400000000     0          
O        O      0.096220000000     0.000000000000     0.498890000000     0          
O        O      0.114985000000     0.000000000000     0.570160000000     0          
O        O      0.059970000000     0.047130000000     0.568440000000     0          
O        O      0.087920000000     0.000000000000     0.628126666667     0          
O        O      0.059730000000     0.138745000000     0.552126666667     0          
O        O      0.006560000000     0.098005000000     0.567090000000     0          
O        O      0.043125000000     0.134630000000     0.480146666667     0          
O        O      0.080210000000     0.203090000000     0.509930000000     0          
O        O      0.133985000000     0.250000000000     0.533483333333     0          
O        O      0.155625000000     0.202420000000     0.594973333333     0          
O        O      0.101005000000     0.250000000000     0.587543333333     0          
O        O      0.117790000000     0.250000000000     0.393930000000     0          
O        O      0.125120000000     0.250000000000     0.658053333333     0          
O        O      0.450165000000     0.113495000000     0.587613333333     0          
O        O      0.071370000000     0.202185000000     0.632986666667     0          
O        O      0.118135000000     0.136415000000     0.650960000000     0          
O        O      0.070175000000     0.143495000000     0.354216666667     0          
O        O      0.068880000000     0.202290000000     0.409733333333     0          
O        O      0.108495000000     0.250000000000     0.462100000000     0          
O        O      0.162270000000     0.111145000000     0.612486666667     0          
O        O      0.141580000000     0.047375000000     0.655273333333     0          
O        O      0.058200000000     0.111235000000     0.619680000000     0          
O        O      0.453840000000     0.046405000000     0.539900000000     0          
O        O      0.212890000000     0.164140000000     0.602673333333     0          
O        O      0.241370000000     0.250000000000     0.613976666667     0          
O        O      0.275015000000     0.170380000000     0.607673333333     0          
O        O      0.320520000000     0.118815000000     0.650246666667     0          
O        O      0.334180000000     0.202460000000     0.624833333333     0          
O        O      0.323555000000     0.126980000000     0.581233333333     0          
O        O      0.387260000000     0.132150000000     0.583980000000     0          
O        O      0.347410000000     0.109740000000     0.522583333333     0          
O        O      0.357965000000     0.047540000000     0.576783333333     0          
O        O      0.389555000000     0.000000000000     0.633870000000     0          
O        O      0.412095000000     0.000000000000     0.572993333333     0          
O        O      0.334490000000     0.137820000000     0.453800000000     0          
O        O      0.395345000000     0.115560000000     0.486216666667     0          
O        O      0.350895000000     0.047690000000     0.470600000000     0          
O        O      0.403780000000     0.000000000000     0.501110000000     0          
O        O      0.385015000000     0.000000000000     0.429840000000     0          
O        O      0.440030000000     0.047130000000     0.431560000000     0          
O        O      0.412080000000     0.000000000000     0.371873333333     0          
O        O      0.440270000000     0.138745000000     0.447873333333     0          
O        O      0.493440000000     0.098005000000     0.432910000000     0          
O        O      0.456875000000     0.134630000000     0.519853333333     0          
O        O      0.419790000000     0.203090000000     0.490070000000     0          
O        O      0.366015000000     0.250000000000     0.466516666667     0          
O        O      0.344375000000     0.202420000000     0.405026666667     0          
O        O      0.398995000000     0.250000000000     0.412456666667     0          
O        O      0.382210000000     0.250000000000     0.606070000000     0          
O        O      0.374880000000     0.250000000000     0.341946666667     0          
O        O      0.049835000000     0.113495000000     0.412386666667     0          
O        O      0.428630000000     0.202185000000     0.367013333333     0          
O        O      0.381865000000     0.136415000000     0.349040000000     0          
O        O      0.429825000000     0.143495000000     0.645783333333     0          
O        O      0.431120000000     0.202290000000     0.590266666667     0          
O        O      0.391505000000     0.250000000000     0.537900000000     0          
O        O      0.337730000000     0.111145000000     0.387513333333     0          
O        O      0.358420000000     0.047375000000     0.344726666667     0          
O        O      0.441800000000     0.111235000000     0.380320000000     0          
O        O      0.046160000000     0.046405000000     0.460100000000     0          
O        O      0.287110000000     0.164140000000     0.397326666667     0          
O        O      0.250000000000     0.314910000000     0.333333333333     0          
O        O      0.275015000000     0.329620000000     0.607673333333     0          
O        O      0.320520000000     0.381185000000     0.650246666667     0          
O        O      0.334180000000     0.297540000000     0.624833333333     0          
O        O      0.323555000000     0.373020000000     0.581233333333     0          
O        O      0.387260000000     0.367850000000     0.583980000000     0          
O        O      0.347410000000     0.390260000000     0.522583333333     0          
O        O      0.357965000000     0.452460000000     0.576783333333     0          
O        O      0.334490000000     0.362180000000     0.453800000000     0          
O        O      0.395345000000     0.384440000000     0.486216666667     0          
O        O      0.350895000000     0.452310000000     0.470600000000     0          
O        O      0.440030000000     0.452870000000     0.431560000000     0          
O        O      0.440270000000     0.361255000000     0.447873333333     0          
O        O      0.493440000000     0.401995000000     0.432910000000     0          
O        O      0.456875000000     0.365370000000     0.519853333333     0          
O        O      0.419790000000     0.296910000000     0.490070000000     0          
O        O      0.344375000000     0.297580000000     0.405026666667     0          
O        O      0.049835000000     0.386505000000     0.412386666667     0          
O        O      0.428630000000     0.297815000000     0.367013333333     0          
O        O      0.381865000000     0.363585000000     0.349040000000     0          
O        O      0.429825000000     0.356505000000     0.645783333333     0          
O        O      0.431120000000     0.297710000000     0.590266666667     0          
O        O      0.337730000000     0.388855000000     0.387513333333     0          
O        O      0.358420000000     0.452625000000     0.344726666667     0          
O        O      0.441800000000     0.388765000000     0.380320000000     0          
O        O      0.046160000000     0.453595000000     0.460100000000     0          
O        O      0.287110000000     0.335860000000     0.397326666667     0          
O        O      0.224985000000     0.329620000000     0.392326666667     0          
O        O      0.179480000000     0.381185000000     0.349753333333     0          
O        O      0.165820000000     0.297540000000     0.375166666667     0          
O        O      0.176445000000     0.373020000000     0.418766666667     0          
O        O      0.112740000000     0.367850000000     0.416020000000     0          
O        O      0.152590000000     0.390260000000     0.477416666667     0          
O        O      0.142035000000     0.452460000000     0.423216666667     0          
O        O      0.165510000000     0.362180000000     0.546200000000     0          
O        O      0.104655000000     0.384440000000     0.513783333333     0          
O        O      0.149105000000     0.452310000000     0.529400000000     0          
O        O      0.059970000000     0.452870000000     0.568440000000     0          
O        O      0.059730000000     0.361255000000     0.552126666667     0          
O        O      0.006560000000     0.401995000000     0.567090000000     0          
O        O      0.043125000000     0.365370000000     0.480146666667     0          
O        O      0.080210000000     0.296910000000     0.509930000000     0          
O        O      0.155625000000     0.297580000000     0.594973333333     0          
O        O      0.450165000000     0.386505000000     0.587613333333     0          
O        O      0.071370000000     0.297815000000     0.632986666667     0          
O        O      0.118135000000     0.363585000000     0.650960000000     0          
O        O      0.070175000000     0.356505000000     0.354216666667     0          
O        O      0.068880000000     0.297710000000     0.409733333333     0          
O        O      0.162270000000     0.388855000000     0.612486666667     0          
O        O      0.141580000000     0.452625000000     0.655273333333     0          
O        O      0.058200000000     0.388765000000     0.619680000000     0          
O        O      0.453840000000     0.453595000000     0.539900000000     0          
O        O      0.212890000000     0.335860000000     0.602673333333     0          
O        O      0.250000000000     0.185090000000     0.666666666667     0          
O        O      0.258630000000     0.250000000000     0.719356666667     0          
O        O      0.224985000000     0.170380000000     0.725660000000     0          
O        O      0.179480000000     0.118815000000     0.683086666667     0          
O        O      0.165820000000     0.202460000000     0.708500000000     0          
O        O      0.176445000000     0.126980000000     0.752100000000     0          
O        O      0.112740000000     0.132150000000     0.749353333333     0          
O        O      0.152590000000     0.109740000000     0.810750000000     0          
O        O      0.142035000000     0.047540000000     0.756550000000     0          
O        O      0.110445000000     0.000000000000     0.699463333333     0          
O        O      0.087905000000     0.000000000000     0.760340000000     0          
O        O      0.165510000000     0.137820000000     0.879533333333     0          
O        O      0.104655000000     0.115560000000     0.847116666667     0          
O        O      0.149105000000     0.047690000000     0.862733333333     0          
O        O      0.096220000000     0.000000000000     0.832223333333     0          
O        O      0.114985000000     0.000000000000     0.903493333333     0          
O        O      0.059970000000     0.047130000000     0.901773333333     0          
O        O      0.087920000000     0.000000000000     0.961460000000     0          
O        O      0.059730000000     0.138745000000     0.885460000000     0          
O        O      0.006560000000     0.098005000000     0.900423333333     0          
O        O      0.043125000000     0.134630000000     0.813480000000     0          
O        O      0.080210000000     0.203090000000     0.843263333333     0          
O        O      0.133985000000     0.250000000000     0.866816666667     0          
O        O      0.155625000000     0.202420000000     0.928306666667     0          
O        O      0.101005000000     0.250000000000     0.920876666667     0          
O        O      0.117790000000     0.250000000000     0.727263333333     0          
O        O      0.125120000000     0.250000000000     0.991386666667     0          
O        O      0.450165000000     0.113495000000     0.920946666667     0          
O        O      0.071370000000     0.202185000000     0.966320000000     0          
O        O      0.118135000000     0.136415000000     0.984293333333     0          
O        O      0.070175000000     0.143495000000     0.687550000000     0          
O        O      0.068880000000     0.202290000000     0.743066666667     0          
O        O      0.108495000000     0.250000000000     0.795433333333     0          
O        O      0.162270000000     0.111145000000     0.945820000000     0          
O        O      0.141580000000     0.047375000000     0.988606666667     0          
O        O      0.058200000000     0.111235000000     0.953013333333     0          
O        O      0.453840000000     0.046405000000     0.873233333333     0          
O        O      0.212890000000     0.164140000000     0.936006666667     0          
O        O      0.241370000000     0.250000000000     0.947310000000     0          
O        O      0.275015000000     0.170380000000     0.941006666667     0          
O        O      0.320520000000     0.118815000000     0.983580000000     0          
O        O      0.334180000000     0.202460000000     0.958166666667     0          
O        O      0.323555000000     0.126980000000     0.914566666667     0          
O        O      0.387260000000     0.132150000000     0.917313333333     0          
O        O      0.347410000000     0.109740000000     0.855916666667     0          
O        O      0.357965000000     0.047540000000     0.910116666667     0          
O        O      0.389555000000     0.000000000000     0.967203333333     0          
O        O      0.412095000000     0.000000000000     0.906326666667     0          
O        O      0.334490000000     0.137820000000     0.787133333333     0          
O        O      0.395345000000     0.115560000000     0.819550000000     0          
O        O      0.350895000000     0.047690000000     0.803933333333     0          
O        O      0.403780000000     0.000000000000     0.834443333333     0          
O        O      0.385015000000     0.000000000000     0.763173333333     0          
O        O      0.440030000000     0.047130000000     0.764893333333     0          
O        O      0.412080000000     0.000000000000     0.705206666667     0          
O        O      0.440270000000     0.138745000000     0.781206666667     0          
O        O      0.493440000000     0.098005000000     0.766243333333     0          
O        O      0.456875000000     0.134630000000     0.853186666667     0          
O        O      0.419790000000     0.203090000000     0.823403333333     0          
O        O      0.366015000000     0.250000000000     0.799850000000     0          
O        O      0.344375000000     0.202420000000     0.738360000000     0          
O        O      0.398995000000     0.250000000000     0.745790000000     0          
O        O      0.382210000000     0.250000000000     0.939403333333     0          
O        O      0.374880000000     0.250000000000     0.675280000000     0          
O        O      0.049835000000     0.113495000000     0.745720000000     0          
O        O      0.428630000000     0.202185000000     0.700346666667     0          
O        O      0.381865000000     0.136415000000     0.682373333333     0          
O        O      0.429825000000     0.143495000000     0.979116666667     0          
O        O      0.431120000000     0.202290000000     0.923600000000     0          
O        O      0.391505000000     0.250000000000     0.871233333333     0          
O        O      0.337730000000     0.111145000000     0.720846666667     0          
O        O      0.358420000000     0.047375000000     0.678060000000     0          
O        O      0.441800000000     0.111235000000     0.713653333333     0          
O        O      0.046160000000     0.046405000000     0.793433333333     0          
O        O      0.287110000000     0.164140000000     0.730660000000     0          
O        O      0.250000000000     0.314910000000     0.666666666667     0          
O        O      0.275015000000     0.329620000000     0.941006666667     0          
O        O      0.320520000000     0.381185000000     0.983580000000     0          
O        O      0.334180000000     0.297540000000     0.958166666667     0          
O        O      0.323555000000     0.373020000000     0.914566666667     0          
O        O      0.387260000000     0.367850000000     0.917313333333     0          
O        O      0.347410000000     0.390260000000     0.855916666667     0          
O        O      0.357965000000     0.452460000000     0.910116666667     0          
O        O      0.334490000000     0.362180000000     0.787133333333     0          
O        O      0.395345000000     0.384440000000     0.819550000000     0          
O        O      0.350895000000     0.452310000000     0.803933333333     0          
O        O      0.440030000000     0.452870000000     0.764893333333     0          
O        O      0.440270000000     0.361255000000     0.781206666667     0          
O        O      0.493440000000     0.401995000000     0.766243333333     0          
O        O      0.456875000000     0.365370000000     0.853186666667     0          
O        O      0.419790000000     0.296910000000     0.823403333333     0          
O        O      0.344375000000     0.297580000000     0.738360000000     0          
O        O      0.049835000000     0.386505000000     0.745720000000     0          
O        O      0.428630000000     0.297815000000     0.700346666667     0          
O        O      0.381865000000     0.363585000000     0.682373333333     0          
O        O      0.429825000000     0.356505000000     0.979116666667     0          
O        O      0.431120000000     0.297710000000     0.923600000000     0          
O        O      0.337730000000     0.388855000000     0.720846666667     0          
O        O      0.358420000000     0.452625000000     0.678060000000     0          
O        O      0.441800000000     0.388765000000     0.713653333333     0          
O        O      0.046160000000     0.453595000000     0.793433333333     0          
O        O      0.287110000000     0.335860000000     0.730660000000     0          
O        O      0.224985000000     0.329620000000     0.725660000000     0          
O        O      0.179480000000     0.381185000000     0.683086666667     0          
O        O      0.165820000000     0.297540000000     0.708500000000     0          
O        O      0.176445000000     0.373020000000     0.752100000000     0          
O        O      0.112740000000     0.367850000000     0.749353333333     0          
O        O      0.152590000000     0.390260000000     0.810750000000     0          
O        O      0.142035000000     0.452460000000     0.756550000000     0          
O        O      0.165510000000     0.362180000000     0.879533333333     0          
O        O      0.104655000000     0.384440000000     0.847116666667     0          
O        O      0.149105000000     0.452310000000     0.862733333333     0          
O        O      0.059970000000     0.452870000000     0.901773333333     0          
O        O      0.059730000000     0.361255000000     0.885460000000     0          
O        O      0.006560000000     0.401995000000     0.900423333333     0          
O        O      0.043125000000     0.365370000000     0.813480000000     0          
O        O      0.080210000000     0.296910000000     0.843263333333     0          
O        O      0.155625000000     0.297580000000     0.928306666667     0          
O        O      0.450165000000     0.386505000000     0.920946666667     0          
O        O      0.071370000000     0.297815000000     0.966320000000     0          
O        O      0.118135000000     0.363585000000     0.984293333333     0          
O        O      0.070175000000     0.356505000000     0.687550000000     0          
O        O      0.068880000000     0.297710000000     0.743066666667     0          
O        O      0.162270000000     0.388855000000     0.945820000000     0          
O        O      0.141580000000     0.452625000000     0.988606666667     0          
O        O      0.058200000000     0.388765000000     0.953013333333     0          
O        O      0.453840000000     0.453595000000     0.873233333333     0          
O        O      0.212890000000     0.335860000000     0.936006666667     0          
O        O      0.250000000000     0.685090000000     0.000000000000     0          
O        O      0.258630000000     0.750000000000     0.052690000000     0          
O        O      0.224985000000     0.670380000000     0.058993333333     0          
O        O      0.179480000000     0.618815000000     0.016420000000     0          
O        O      0.165820000000     0.702460000000     0.041833333333     0          
O        O      0.176445000000     0.626980000000     0.085433333333     0          
O        O      0.112740000000     0.632150000000     0.082686666667     0          
O        O      0.152590000000     0.609740000000     0.144083333333     0          
O        O      0.142035000000     0.547540000000     0.089883333333     0          
O        O      0.110445000000     0.500000000000     0.032796666667     0          
O        O      0.087905000000     0.500000000000     0.093673333333     0          
O        O      0.165510000000     0.637820000000     0.212866666667     0          
O        O      0.104655000000     0.615560000000     0.180450000000     0          
O        O      0.149105000000     0.547690000000     0.196066666667     0          
O        O      0.096220000000     0.500000000000     0.165556666667     0          
O        O      0.114985000000     0.500000000000     0.236826666667     0          
O        O      0.059970000000     0.547130000000     0.235106666667     0          
O        O      0.087920000000     0.500000000000     0.294793333333     0          
O        O      0.059730000000     0.638745000000     0.218793333333     0          
O        O      0.006560000000     0.598005000000     0.233756666667     0          
O        O      0.043125000000     0.634630000000     0.146813333333     0          
O        O      0.080210000000     0.703090000000     0.176596666667     0          
O        O      0.133985000000     0.750000000000     0.200150000000     0          
O        O      0.155625000000     0.702420000000     0.261640000000     0          
O        O      0.101005000000     0.750000000000     0.254210000000     0          
O        O      0.117790000000     0.750000000000     0.060596666667     0          
O        O      0.125120000000     0.750000000000     0.324720000000     0          
O        O      0.450165000000     0.613495000000     0.254280000000     0          
O        O      0.071370000000     0.702185000000     0.299653333333     0          
O        O      0.118135000000     0.636415000000     0.317626666667     0          
O        O      0.070175000000     0.643495000000     0.020883333333     0          
O        O      0.068880000000     0.702290000000     0.076400000000     0          
O        O      0.108495000000     0.750000000000     0.128766666667     0          
O        O      0.162270000000     0.611145000000     0.279153333333     0          
O        O      0.141580000000     0.547375000000     0.321940000000     0          
O        O      0.058200000000     0.611235000000     0.286346666667     0          
O        O      0.453840000000     0.546405000000     0.206566666667     0          
O        O      0.212890000000     0.664140000000     0.269340000000     0          
O        O      0.241370000000     0.750000000000     0.280643333333     0          
O        O      0.275015000000     0.670380000000     0.274340000000     0          
O        O      0.320520000000     0.618815000000     0.316913333333     0          
O        O      0.334180000000     0.702460000000     0.291500000000     0          
O        O      0.323555000000     0.626980000000     0.247900000000     0          
O        O      0.387260000000     0.632150000000     0.250646666667     0          
O        O      0.347410000000     0.609740000000     0.189250000000     0          
O        O      0.357965000000     0.547540000000     0.243450000000     0          
O        O      0.389555000000     0.500000000000     0.300536666667     0          
O        O      0.412095000000     0.500000000000     0.239660000000     0          
O        O      0.334490000000     0.637820000000     0.120466666667     0          
O        O      0.395345000000     0.615560000000     0.152883333333     0          
O        O      0.350895000000     0.547690000000     0.137266666667     0          
O        O      0.403780000000     0.500000000000     0.167776666667     0          
O        O      0.385015000000     0.500000000000     0.096506666667     0          
O        O      0.440030000000     0.547130000000     0.098226666667     0          
O        O      0.412080000000     0.500000000000     0.038540000000     0          
O        O      0.440270000000     0.638745000000     0.114540000000     0          
O        O      0.493440000000     0.598005000000     0.099576666667     0          
O        O      0.456875000000     0.634630000000     0.186520000000     0          
O        O      0.419790000000     0.703090000000     0.156736666667     0          
O        O      0.366015000000     0.750000000000     0.133183333333     0          
O        O      0.344375000000     0.702420000000     0.071693333333     0          
O        O      0.398995000000     0.750000000000     0.079123333333     0          
O        O      0.382210000000     0.750000000000     0.272736666667     0          
O        O      0.374880000000     0.750000000000     0.008613333333     0          
O        O      0.049835000000     0.613495000000     0.079053333333     0          
O        O      0.428630000000     0.702185000000     0.033680000000     0          
O        O      0.381865000000     0.636415000000     0.015706666667     0          
O        O      0.429825000000     0.643495000000     0.312450000000     0          
O        O      0.431120000000     0.702290000000     0.256933333333     0          
O        O      0.391505000000     0.750000000000     0.204566666667     0          
O        O      0.337730000000     0.611145000000     0.054180000000     0          
O        O      0.358420000000     0.547375000000     0.011393333333     0          
O        O      0.441800000000     0.611235000000     0.046986666667     0          
O        O      0.046160000000     0.546405000000     0.126766666667     0          
O        O      0.287110000000     0.664140000000     0.063993333333     0          
O        O      0.250000000000     0.814910000000     0.000000000000     0          
O        O      0.275015000000     0.829620000000     0.274340000000     0          
O        O      0.320520000000     0.881185000000     0.316913333333     0          
O        O      0.334180000000     0.797540000000     0.291500000000     0          
O        O      0.323555000000     0.873020000000     0.247900000000     0          
O        O      0.387260000000     0.867850000000     0.250646666667     0          
O        O      0.347410000000     0.890260000000     0.189250000000     0          
O        O      0.357965000000     0.952460000000     0.243450000000     0          
O        O      0.334490000000     0.862180000000     0.120466666667     0          
O        O      0.395345000000     0.884440000000     0.152883333333     0          
O        O      0.350895000000     0.952310000000     0.137266666667     0          
O        O      0.440030000000     0.952870000000     0.098226666667     0          
O        O      0.440270000000     0.861255000000     0.114540000000     0          
O        O      0.493440000000     0.901995000000     0.099576666667     0          
O        O      0.456875000000     0.865370000000     0.186520000000     0          
O        O      0.419790000000     0.796910000000     0.156736666667     0          
O        O      0.344375000000     0.797580000000     0.071693333333     0          
O        O      0.049835000000     0.886505000000     0.079053333333     0          
O        O      0.428630000000     0.797815000000     0.033680000000     0          
O        O      0.381865000000     0.863585000000     0.015706666667     0          
O        O      0.429825000000     0.856505000000     0.312450000000     0          
O        O      0.431120000000     0.797710000000     0.256933333333     0          
O        O      0.337730000000     0.888855000000     0.054180000000     0          
O        O      0.358420000000     0.952625000000     0.011393333333     0          
O        O      0.441800000000     0.888765000000     0.046986666667     0          
O        O      0.046160000000     0.953595000000     0.126766666667     0          
O        O      0.287110000000     0.835860000000     0.063993333333     0          
O        O      0.224985000000     0.829620000000     0.058993333333     0          
O        O      0.179480000000     0.881185000000     0.016420000000     0          
O        O      0.165820000000     0.797540000000     0.041833333333     0          
O        O      0.176445000000     0.873020000000     0.085433333333     0          
O        O      0.112740000000     0.867850000000     0.082686666667     0          
O        O      0.152590000000     0.890260000000     0.144083333333     0          
O        O      0.142035000000     0.952460000000     0.089883333333     0          
O        O      0.165510000000     0.862180000000     0.212866666667     0          
O        O      0.104655000000     0.884440000000     0.180450000000     0          
O        O      0.149105000000     0.952310000000     0.196066666667     0          
O        O      0.059970000000     0.952870000000     0.235106666667     0          
O        O      0.059730000000     0.861255000000     0.218793333333     0          
O        O      0.006560000000     0.901995000000     0.233756666667     0          
O        O      0.043125000000     0.865370000000     0.146813333333     0          
O        O      0.080210000000     0.796910000000     0.176596666667     0          
O        O      0.155625000000     0.797580000000     0.261640000000     0          
O        O      0.450165000000     0.886505000000     0.254280000000     0          
O        O      0.071370000000     0.797815000000     0.299653333333     0          
O        O      0.118135000000     0.863585000000     0.317626666667     0          
O        O      0.070175000000     0.856505000000     0.020883333333     0          
O        O      0.068880000000     0.797710000000     0.076400000000     0          
O        O      0.162270000000     0.888855000000     0.279153333333     0          
O        O      0.141580000000     0.952625000000     0.321940000000     0          
O        O      0.058200000000     0.888765000000     0.286346666667     0          
O        O      0.453840000000     0.953595000000     0.206566666667     0          
O        O      0.212890000000     0.835860000000     0.269340000000     0          
O        O      0.250000000000     0.685090000000     0.333333333333     0          
O        O      0.258630000000     0.750000000000     0.386023333333     0          
O        O      0.224985000000     0.670380000000     0.392326666667     0          
O        O      0.179480000000     0.618815000000     0.349753333333     0          
O        O      0.165820000000     0.702460000000     0.375166666667     0          
O        O      0.176445000000     0.626980000000     0.418766666667     0          
O        O      0.112740000000     0.632150000000     0.416020000000     0          
O        O      0.152590000000     0.609740000000     0.477416666667     0          
O        O      0.142035000000     0.547540000000     0.423216666667     0          
O        O      0.110445000000     0.500000000000     0.366130000000     0          
O        O      0.087905000000     0.500000000000     0.427006666667     0          
O        O      0.165510000000     0.637820000000     0.546200000000     0          
O        O      0.104655000000     0.615560000000     0.513783333333     0          
O        O      0.149105000000     0.547690000000     0.529400000000     0          
O        O      0.096220000000     0.500000000000     0.498890000000     0          
O        O      0.114985000000     0.500000000000     0.570160000000     0          
O        O      0.059970000000     0.547130000000     0.568440000000     0          
O        O      0.087920000000     0.500000000000     0.628126666667     0          
O        O      0.059730000000     0.638745000000     0.552126666667     0          
O        O      0.006560000000     0.598005000000     0.567090000000     0          
O        O      0.043125000000     0.634630000000     0.480146666667     0          
O        O      0.080210000000     0.703090000000     0.509930000000     0          
O        O      0.133985000000     0.750000000000     0.533483333333     0          
O        O      0.155625000000     0.702420000000     0.594973333333     0          
O        O      0.101005000000     0.750000000000     0.587543333333     0          
O        O      0.117790000000     0.750000000000     0.393930000000     0          
O        O      0.125120000000     0.750000000000     0.658053333333     0          
O        O      0.450165000000     0.613495000000     0.587613333333     0          
O        O      0.071370000000     0.702185000000     0.632986666667     0          
O        O      0.118135000000     0.636415000000     0.650960000000     0          
O        O      0.070175000000     0.643495000000     0.354216666667     0          
O        O      0.068880000000     0.702290000000     0.409733333333     0          
O        O      0.108495000000     0.750000000000     0.462100000000     0          
O        O      0.162270000000     0.611145000000     0.612486666667     0          
O        O      0.141580000000     0.547375000000     0.655273333333     0          
O        O      0.058200000000     0.611235000000     0.619680000000     0          
O        O      0.453840000000     0.546405000000     0.539900000000     0          
O        O      0.212890000000     0.664140000000     0.602673333333     0          
O        O      0.241370000000     0.750000000000     0.613976666667     0          
O        O      0.275015000000     0.670380000000     0.607673333333     0          
O        O      0.320520000000     0.618815000000     0.650246666667     0          
O        O      0.334180000000     0.702460000000     0.624833333333     0          
O        O      0.323555000000     0.626980000000     0.581233333333     0          
O        O      0.387260000000     0.632150000000     0.583980000000     0          
O        O      0.347410000000     0.609740000000     0.522583333333     0          
O        O      0.357965000000     0.547540000000     0.576783333333     0          
O        O      0.389555000000     0.500000000000     0.633870000000     0          
O        O      0.412095000000     0.500000000000     0.572993333333     0          
O        O      0.334490000000     0.637820000000     0.453800000000     0          
O        O      0.395345000000     0.615560000000     0.486216666667     0          
O        O      0.350895000000     0.547690000000     0.470600000000     0          
O        O      0.403780000000     0.500000000000     0.501110000000     0          
O        O      0.385015000000     0.500000000000     0.429840000000     0          
O        O      0.440030000000     0.547130000000     0.431560000000     0          
O        O      0.412080000000     0.500000000000     0.371873333333     0          
O        O      0.440270000000     0.638745000000     0.447873333333     0          
O        O      0.493440000000     0.598005000000     0.432910000000     0          
O        O      0.456875000000     0.634630000000     0.519853333333     0          
O        O      0.419790000000     0.703090000000     0.490070000000     0          
O        O      0.366015000000     0.750000000000     0.466516666667     0          
O        O      0.344375000000     0.702420000000     0.405026666667     0          
O        O      0.398995000000     0.750000000000     0.412456666667     0          
O        O      0.382210000000     0.750000000000     0.606070000000     0          
O        O      0.374880000000     0.750000000000     0.341946666667     0          
O        O      0.049835000000     0.613495000000     0.412386666667     0          
O        O      0.428630000000     0.702185000000     0.367013333333     0          
O        O      0.381865000000     0.636415000000     0.349040000000     0          
O        O      0.429825000000     0.643495000000     0.645783333333     0          
O        O      0.431120000000     0.702290000000     0.590266666667     0          
O        O      0.391505000000     0.750000000000     0.537900000000     0          
O        O      0.337730000000     0.611145000000     0.387513333333     0          
O        O      0.358420000000     0.547375000000     0.344726666667     0          
O        O      0.441800000000     0.611235000000     0.380320000000     0          
O        O      0.046160000000     0.546405000000     0.460100000000     0          
O        O      0.287110000000     0.664140000000     0.397326666667     0          
O        O      0.250000000000     0.814910000000     0.333333333333     0          
O        O      0.275015000000     0.829620000000     0.607673333333     0          
O        O      0.320520000000     0.881185000000     0.650246666667     0          
O        O      0.334180000000     0.797540000000     0.624833333333     0          
O        O      0.323555000000     0.873020000000     0.581233333333     0          
O        O      0.387260000000     0.867850000000     0.583980000000     0          
O        O      0.347410000000     0.890260000000     0.522583333333     0          
O        O      0.357965000000     0.952460000000     0.576783333333     0          
O        O      0.334490000000     0.862180000000     0.453800000000     0          
O        O      0.395345000000     0.884440000000     0.486216666667     0          
O        O      0.350895000000     0.952310000000     0.470600000000     0          
O        O      0.440030000000     0.952870000000     0.431560000000     0          
O        O      0.440270000000     0.861255000000     0.447873333333     0          
O        O      0.493440000000     0.901995000000     0.432910000000     0          
O        O      0.456875000000     0.865370000000     0.519853333333     0          
O        O      0.419790000000     0.796910000000     0.490070000000     0          
O        O      0.344375000000     0.797580000000     0.405026666667     0          
O        O      0.049835000000     0.886505000000     0.412386666667     0          
O        O      0.428630000000     0.797815000000     0.367013333333     0          
O        O      0.381865000000     0.863585000000     0.349040000000     0          
O        O      0.429825000000     0.856505000000     0.645783333333     0          
O        O      0.431120000000     0.797710000000     0.590266666667     0          
O        O      0.337730000000     0.888855000000     0.387513333333     0          
O        O      0.358420000000     0.952625000000     0.344726666667     0          
O        O      0.441800000000     0.888765000000     0.380320000000     0          
O        O      0.046160000000     0.953595000000     0.460100000000     0          
O        O      0.287110000000     0.835860000000     0.397326666667     0          
O        O      0.224985000000     0.829620000000     0.392326666667     0          
O        O      0.179480000000     0.881185000000     0.349753333333     0          
O        O      0.165820000000     0.797540000000     0.375166666667     0          
O        O      0.176445000000     0.873020000000     0.418766666667     0          
O        O      0.112740000000     0.867850000000     0.416020000000     0          
O        O      0.152590000000     0.890260000000     0.477416666667     0          
O        O      0.142035000000     0.952460000000     0.423216666667     0          
O        O      0.165510000000     0.862180000000     0.546200000000     0          
O        O      0.104655000000     0.884440000000     0.513783333333     0          
O        O      0.149105000000     0.952310000000     0.529400000000     0          
O        O      0.059970000000     0.952870000000     0.568440000000     0          
O        O      0.059730000000     0.861255000000     0.552126666667     0          
O        O      0.006560000000     0.901995000000     0.567090000000     0          
O        O      0.043125000000     0.865370000000     0.480146666667     0          
O        O      0.080210000000     0.796910000000     0.509930000000     0          
O        O      0.155625000000     0.797580000000     0.594973333333     0          
O        O      0.450165000000     0.886505000000     0.587613333333     0          
O        O      0.071370000000     0.797815000000     0.632986666667     0          
O        O      0.118135000000     0.863585000000     0.650960000000     0          
O        O      0.070175000000     0.856505000000     0.354216666667     0          
O        O      0.068880000000     0.797710000000     0.409733333333     0          
O        O      0.162270000000     0.888855000000     0.612486666667     0          
O        O      0.141580000000     0.952625000000     0.655273333333     0          
O        O      0.058200000000     0.888765000000     0.619680000000     0          
O        O      0.453840000000     0.953595000000     0.539900000000     0          
O        O      0.212890000000     0.835860000000     0.602673333333     0          
O        O      0.250000000000     0.685090000000     0.666666666667     0          
O        O      0.258630000000     0.750000000000     0.719356666667     0          
O        O      0.224985000000     0.670380000000     0.725660000000     0          
O        O      0.179480000000     0.618815000000     0.683086666667     0          
O        O      0.165820000000     0.702460000000     0.708500000000     0          
O        O      0.176445000000     0.626980000000     0.752100000000     0          
O        O      0.112740000000     0.632150000000     0.749353333333     0          
O        O      0.152590000000     0.609740000000     0.810750000000     0          
O        O      0.142035000000     0.547540000000     0.756550000000     0          
O        O      0.110445000000     0.500000000000     0.699463333333     0          
O        O      0.087905000000     0.500000000000     0.760340000000     0          
O        O      0.165510000000     0.637820000000     0.879533333333     0          
O        O      0.104655000000     0.615560000000     0.847116666667     0          
O        O      0.149105000000     0.547690000000     0.862733333333     0          
O        O      0.096220000000     0.500000000000     0.832223333333     0          
O        O      0.114985000000     0.500000000000     0.903493333333     0          
O        O      0.059970000000     0.547130000000     0.901773333333     0          
O        O      0.087920000000     0.500000000000     0.961460000000     0          
O        O      0.059730000000     0.638745000000     0.885460000000     0          
O        O      0.006560000000     0.598005000000     0.900423333333     0          
O        O      0.043125000000     0.634630000000     0.813480000000     0          
O        O      0.080210000000     0.703090000000     0.843263333333     0          
O        O      0.133985000000     0.750000000000     0.866816666667     0          
O        O      0.155625000000     0.702420000000     0.928306666667     0          
O        O      0.101005000000     0.750000000000     0.920876666667     0          
O        O      0.117790000000     0.750000000000     0.727263333333     0          
O        O      0.125120000000     0.750000000000     0.991386666667     0          
O        O      0.450165000000     0.613495000000     0.920946666667     0          
O        O      0.071370000000     0.702185000000     0.966320000000     0          
O        O      0.118135000000     0.636415000000     0.984293333333     0          
O        O      0.070175000000     0.643495000000     0.687550000000     0          
O        O      0.068880000000     0.702290000000     0.743066666667     0          
O        O      0.108495000000     0.750000000000     0.795433333333     0          
O        O      0.162270000000     0.611145000000     0.945820000000     0          
O        O      0.141580000000     0.547375000000     0.988606666667     0          
O        O      0.058200000000     0.611235000000     0.953013333333     0          
O        O      0.453840000000     0.546405000000     0.873233333333     0          
O        O      0.212890000000     0.664140000000     0.936006666667     0          
O        O      0.241370000000     0.750000000000     0.947310000000     0          
O        O      0.275015000000     0.670380000000     0.941006666667     0          
O        O      0.320520000000     0.618815000000     0.983580000000     0          
O        O      0.334180000000     0.702460000000     0.958166666667     0          
O        O      0.323555000000     0.626980000000     0.914566666667     0          
O        O      0.387260000000     0.632150000000     0.917313333333     0          
O        O      0.347410000000     0.609740000000     0.855916666667     0          
O        O      0.357965000000     0.547540000000     0.910116666667     0          
O        O      0.389555000000     0.500000000000     0.967203333333     0          
O        O      0.412095000000     0.500000000000     0.906326666667     0          
O        O      0.334490000000     0.637820000000     0.787133333333     0          
O        O      0.395345000000     0.615560000000     0.819550000000     0          
O        O      0.350895000000     0.547690000000     0.803933333333     0          
O        O      0.403780000000     0.500000000000     0.834443333333     0          
O        O      0.385015000000     0.500000000000     0.763173333333     0          
O        O      0.440030000000     0.547130000000     0.764893333333     0          
O        O      0.412080000000     0.500000000000     0.705206666667     0          
O        O      0.440270000000     0.638745000000     0.781206666667     0          
O        O      0.493440000000     0.598005000000     0.766243333333     0          
O        O      0.456875000000     0.634630000000     0.853186666667     0          
O        O      0.419790000000     0.703090000000     0.823403333333     0          
O        O      0.366015000000     0.750000000000     0.799850000000     0          
O        O      0.344375000000     0.702420000000     0.738360000000     0          
O        O      0.398995000000     0.750000000000     0.745790000000     0          
O        O      0.382210000000     0.750000000000     0.939403333333     0          
O        O      0.374880000000     0.750000000000     0.675280000000     0          
O        O      0.049835000000     0.613495000000     0.745720000000     0          
O        O      0.428630000000     0.702185000000     0.700346666667     0          
O        O      0.381865000000     0.636415000000     0.682373333333     0          
O        O      0.429825000000     0.643495000000     0.979116666667     0          
O        O      0.431120000000     0.702290000000     0.923600000000     0          
O        O      0.391505000000     0.750000000000     0.871233333333     0          
O        O      0.337730000000     0.611145000000     0.720846666667     0          
O        O      0.358420000000     0.547375000000     0.678060000000     0          
O        O      0.441800000000     0.611235000000     0.713653333333     0          
O        O      0.046160000000     0.546405000000     0.793433333333     0          
O        O      0.287110000000     0.664140000000     0.730660000000     0          
O        O      0.250000000000     0.814910000000     0.666666666667     0          
O        O      0.275015000000     0.829620000000     0.941006666667     0          
O        O      0.320520000000     0.881185000000     0.983580000000     0          
O        O      0.334180000000     0.797540000000     0.958166666667     0          
O        O      0.323555000000     0.873020000000     0.914566666667     0          
O        O      0.387260000000     0.867850000000     0.917313333333     0          
O        O      0.347410000000     0.890260000000     0.855916666667     0          
O        O      0.357965000000     0.952460000000     0.910116666667     0          
O        O      0.334490000000     0.862180000000     0.787133333333     0          
O        O      0.395345000000     0.884440000000     0.819550000000     0          
O        O      0.350895000000     0.952310000000     0.803933333333     0          
O        O      0.440030000000     0.952870000000     0.764893333333     0          
O        O      0.440270000000     0.861255000000     0.781206666667     0          
O        O      0.493440000000     0.901995000000     0.766243333333     0          
O        O      0.456875000000     0.865370000000     0.853186666667     0          
O        O      0.419790000000     0.796910000000     0.823403333333     0          
O        O      0.344375000000     0.797580000000     0.738360000000     0          
O        O      0.049835000000     0.886505000000     0.745720000000     0          
O        O      0.428630000000     0.797815000000     0.700346666667     0          
O        O      0.381865000000     0.863585000000     0.682373333333     0          
O        O      0.429825000000     0.856505000000     0.979116666667     0          
O        O      0.431120000000     0.797710000000     0.923600000000     0          
O        O      0.337730000000     0.888855000000     0.720846666667     0          
O        O      0.358420000000     0.952625000000     0.678060000000     0          
O        O      0.441800000000     0.888765000000     0.713653333333     0          
O        O      0.046160000000     0.953595000000     0.793433333333     0          
O        O      0.287110000000     0.835860000000     0.730660000000     0          
O        O      0.224985000000     0.829620000000     0.725660000000     0          
O        O      0.179480000000     0.881185000000     0.683086666667     0          
O        O      0.165820000000     0.797540000000     0.708500000000     0          
O        O      0.176445000000     0.873020000000     0.752100000000     0          
O        O      0.112740000000     0.867850000000     0.749353333333     0          
O        O      0.152590000000     0.890260000000     0.810750000000     0          
O        O      0.142035000000     0.952460000000     0.756550000000     0          
O        O      0.165510000000     0.862180000000     0.879533333333     0          
O        O      0.104655000000     0.884440000000     0.847116666667     0          
O        O      0.149105000000     0.952310000000     0.862733333333     0          
O        O      0.059970000000     0.952870000000     0.901773333333     0          
O        O      0.059730000000     0.861255000000     0.885460000000     0          
O        O      0.006560000000     0.901995000000     0.900423333333     0          
O        O      0.043125000000     0.865370000000     0.813480000000     0          
O        O      0.080210000000     0.796910000000     0.843263333333     0          
O        O      0.155625000000     0.797580000000     0.928306666667     0          
O        O      0.450165000000     0.886505000000     0.920946666667     0          
O        O      0.071370000000     0.797815000000     0.966320000000     0          
O        O      0.118135000000     0.863585000000     0.984293333333     0          
O        O      0.070175000000     0.856505000000     0.687550000000     0          
O        O      0.068880000000     0.797710000000     0.743066666667     0          
O        O      0.162270000000     0.888855000000     0.945820000000     0          
O        O      0.141580000000     0.952625000000     0.988606666667     0          
O        O      0.058200000000     0.888765000000     0.953013333333     0          
O        O      0.453840000000     0.953595000000     0.873233333333     0          
O        O      0.212890000000     0.835860000000     0.936006666667     0          
O        O      0.750000000000     0.185090000000     0.000000000000     0          
O        O      0.758630000000     0.250000000000     0.052690000000     0          
O        O      0.724985000000     0.170380000000     0.058993333333     0          
O        O      0.679480000000     0.118815000000     0.016420000000     0          
O        O      0.665820000000     0.202460000000     0.041833333333     0          
O        O      0.676445000000     0.126980000000     0.085433333333     0          
O        O      0.612740000000     0.132150000000     0.082686666667     0          
O        O      0.652590000000     0.109740000000     0.144083333333     0          
O        O      0.642035000000     0.047540000000     0.089883333333     0          
O        O      0.610445000000     0.000000000000     0.032796666667     0          
O        O      0.587905000000     0.000000000000     0.093673333333     0          
O        O      0.665510000000     0.137820000000     0.212866666667     0          
O        O      0.604655000000     0.115560000000     0.180450000000     0          
O        O      0.649105000000     0.047690000000     0.196066666667     0          
O        O      0.596220000000     0.000000000000     0.165556666667     0          
O        O      0.614985000000     0.000000000000     0.236826666667     0          
O        O      0.559970000000     0.047130000000     0.235106666667     0          
O        O      0.587920000000     0.000000000000     0.294793333333     0          
O        O      0.559730000000     0.138745000000     0.218793333333     0          
O        O      0.506560000000     0.098005000000     0.233756666667     0          
O        O      0.543125000000     0.134630000000     0.146813333333     0          
O        O      0.580210000000     0.203090000000     0.176596666667     0          
O        O      0.633985000000     0.250000000000     0.200150000000     0          
O        O      0.655625000000     0.202420000000     0.261640000000     0          
O        O      0.601005000000     0.250000000000     0.254210000000     0          
O        O      0.617790000000     0.250000000000     0.060596666667     0          
O        O      0.625120000000     0.250000000000     0.324720000000     0          
O        O      0.950165000000     0.113495000000     0.254280000000     0          
O        O      0.571370000000     0.202185000000     0.299653333333     0          
O        O      0.618135000000     0.136415000000     0.317626666667     0          
O        O      0.570175000000     0.143495000000     0.020883333333     0          
O        O      0.568880000000     0.202290000000     0.076400000000     0          
O        O      0.608495000000     0.250000000000     0.128766666667     0          
O        O      0.662270000000     0.111145000000     0.279153333333     0          
O        O      0.641580000000     0.047375000000     0.321940000000     0          
O        O      0.558200000000     0.111235000000     0.286346666667     0          
O        O      0.953840000000     0.046405000000     0.206566666667     0          
O        O      0.712890000000     0.164140000000     0.269340000000     0          
O        O      0.741370000000     0.250000000000     0.280643333333     0          
O        O      0.775015000000     0.170380000000     0.274340000000     0          
O        O      0.820520000000     0.118815000000     0.316913333333     0          
O        O      0.834180000000     0.202460000000     0.291500000000     0          
O        O      0.823555000000     0.126980000000     0.247900000000     0          
O        O      0.887260000000     0.132150000000     0.250646666667     0          
O        O      0.847410000000     0.109740000000     0.189250000000     0          
O        O      0.857965000000     0.047540000000     0.243450000000     0          
O        O      0.889555000000     0.000000000000     0.300536666667     0          
O        O      0.912095000000     0.000000000000     0.239660000000     0          
O        O      0.834490000000     0.137820000000     0.120466666667     0          
O        O      0.895345000000     0.115560000000     0.152883333333     0          
O        O      0.850895000000     0.047690000000     0.137266666667     0          
O        O      0.903780000000     0.000000000000     0.167776666667     0          
O        O      0.885015000000     0.000000000000     0.096506666667     0          
O        O      0.940030000000     0.047130000000     0.098226666667     0          
O        O      0.912080000000     0.000000000000     0.038540000000     0          
O        O      0.940270000000     0.138745000000     0.114540000000     0          
O        O      0.993440000000     0.098005000000     0.099576666667     0          
O        O      0.956875000000     0.134630000000     0.186520000000     0          
O        O      0.919790000000     0.203090000000     0.156736666667     0          
O        O      0.866015000000     0.250000000000     0.133183333333     0          
O        O      0.844375000000     0.202420000000     0.071693333333     0          
O        O      0.898995000000     0.250000000000     0.079123333333     0          
O        O      0.882210000000     0.250000000000     0.272736666667     0          
O        O      0.874880000000     0.250000000000     0.008613333333     0          
O        O      0.549835000000     0.113495000000     0.079053333333     0          
O        O      0.928630000000     0.202185000000     0.033680000000     0          
O        O      0.881865000000     0.136415000000     0.015706666667     0          
O        O      0.929825000000     0.143495000000     0.312450000000     0          
O        O      0.931120000000     0.202290000000     0.256933333333     0          
O        O      0.891505000000     0.250000000000     0.204566666667     0          
O        O      0.837730000000     0.111145000000     0.054180000000     0          
O        O      0.858420000000     0.047375000000     0.011393333333     0          
O        O      0.941800000000     0.111235000000     0.046986666667     0          
O        O      0.546160000000     0.046405000000     0.126766666667     0          
O        O      0.787110000000     0.164140000000     0.063993333333     0          
O        O      0.750000000000     0.314910000000     0.000000000000     0          
O        O      0.775015000000     0.329620000000     0.274340000000     0          
O        O      0.820520000000     0.381185000000     0.316913333333     0          
O        O      0.834180000000     0.297540000000     0.291500000000     0          
O        O      0.823555000000     0.373020000000     0.247900000000     0          
O        O      0.887260000000     0.367850000000     0.250646666667     0          
O        O      0.847410000000     0.390260000000     0.189250000000     0          
O        O      0.857965000000     0.452460000000     0.243450000000     0          
O        O      0.834490000000     0.362180000000     0.120466666667     0          
O        O      0.895345000000     0.384440000000     0.152883333333     0          
O        O      0.850895000000     0.452310000000     0.137266666667     0          
O        O      0.940030000000     0.452870000000     0.098226666667     0          
O        O      0.940270000000     0.361255000000     0.114540000000     0          
O        O      0.993440000000     0.401995000000     0.099576666667     0          
O        O      0.956875000000     0.365370000000     0.186520000000     0          
O        O      0.919790000000     0.296910000000     0.156736666667     0          
O        O      0.844375000000     0.297580000000     0.071693333333     0          
O        O      0.549835000000     0.386505000000     0.079053333333     0          
O        O      0.928630000000     0.297815000000     0.033680000000     0          
O        O      0.881865000000     0.363585000000     0.015706666667     0          
O        O      0.929825000000     0.356505000000     0.312450000000     0          
O        O      0.931120000000     0.297710000000     0.256933333333     0          
O        O      0.837730000000     0.388855000000     0.054180000000     0          
O        O      0.858420000000     0.452625000000     0.011393333333     0          
O        O      0.941800000000     0.388765000000     0.046986666667     0          
O        O      0.546160000000     0.453595000000     0.126766666667     0          
O        O      0.787110000000     0.335860000000     0.063993333333     0          
O        O      0.724985000000     0.329620000000     0.058993333333     0          
O        O      0.679480000000     0.381185000000     0.016420000000     0          
O        O      0.665820000000     0.297540000000     0.041833333333     0          
O        O      0.676445000000     0.373020000000     0.085433333333     0          
O        O      0.612740000000     0.367850000000     0.082686666667     0          
O        O      0.652590000000     0.390260000000     0.144083333333     0          
O        O      0.642035000000     0.452460000000     0.089883333333     0          
O        O      0.665510000000     0.362180000000     0.212866666667     0          
O        O      0.604655000000     0.384440000000     0.180450000000     0          
O        O      0.649105000000     0.452310000000     0.196066666667     0          
O        O      0.559970000000     0.452870000000     0.235106666667     0          
O        O      0.559730000000     0.361255000000     0.218793333333     0          
O        O      0.506560000000     0.401995000000     0.233756666667     0          
O        O      0.543125000000     0.365370000000     0.146813333333     0          
O        O      0.580210000000     0.296910000000     0.176596666667     0          
O        O      0.655625000000     0.297580000000     0.261640000000     0          
O        O      0.950165000000     0.386505000000     0.254280000000     0          
O        O      0.571370000000     0.297815000000     0.299653333333     0          
O        O      0.618135000000     0.363585000000     0.317626666667     0          
O        O      0.570175000000     0.356505000000     0.020883333333     0          
O        O      0.568880000000     0.297710000000     0.076400000000     0          
O        O      0.662270000000     0.388855000000     0.279153333333     0          
O        O      0.641580000000     0.452625000000     0.321940000000     0          
O        O      0.558200000000     0.388765000000     0.286346666667     0          
O        O      0.953840000000     0.453595000000     0.206566666667     0          
O        O      0.712890000000     0.335860000000     0.269340000000     0          
O        O      0.750000000000     0.185090000000     0.333333333333     0          
O        O      0.758630000000     0.250000000000     0.386023333333     0          
O        O      0.724985000000     0.170380000000     0.392326666667     0          
O        O      0.679480000000     0.118815000000     0.349753333333     0          
O        O      0.665820000000     0.202460000000     0.375166666667     0          
O        O      0.676445000000     0.126980000000     0.418766666667     0          
O        O      0.612740000000     0.132150000000     0.416020000000     0          
O        O      0.652590000000     0.109740000000     0.477416666667     0          
O        O      0.642035000000     0.047540000000     0.423216666667     0          
O        O      0.610445000000     0.000000000000     0.366130000000     0          
O        O      0.587905000000     0.000000000000     0.427006666667     0          
O        O      0.665510000000     0.137820000000     0.546200000000     0          
O        O      0.604655000000     0.115560000000     0.513783333333     0          
O        O      0.649105000000     0.047690000000     0.529400000000     0          
O        O      0.596220000000     0.000000000000     0.498890000000     0          
O        O      0.614985000000     0.000000000000     0.570160000000     0          
O        O      0.559970000000     0.047130000000     0.568440000000     0          
O        O      0.587920000000     0.000000000000     0.628126666667     0          
O        O      0.559730000000     0.138745000000     0.552126666667     0          
O        O      0.506560000000     0.098005000000     0.567090000000     0          
O        O      0.543125000000     0.134630000000     0.480146666667     0          
O        O      0.580210000000     0.203090000000     0.509930000000     0          
O        O      0.633985000000     0.250000000000     0.533483333333     0          
O        O      0.655625000000     0.202420000000     0.594973333333     0          
O        O      0.601005000000     0.250000000000     0.587543333333     0          
O        O      0.617790000000     0.250000000000     0.393930000000     0          
O        O      0.625120000000     0.250000000000     0.658053333333     0          
O        O      0.950165000000     0.113495000000     0.587613333333     0          
O        O      0.571370000000     0.202185000000     0.632986666667     0          
O        O      0.618135000000     0.136415000000     0.650960000000     0          
O        O      0.570175000000     0.143495000000     0.354216666667     0          
O        O      0.568880000000     0.202290000000     0.409733333333     0          
O        O      0.608495000000     0.250000000000     0.462100000000     0          
O        O      0.662270000000     0.111145000000     0.612486666667     0          
O        O      0.641580000000     0.047375000000     0.655273333333     0          
O        O      0.558200000000     0.111235000000     0.619680000000     0          
O        O      0.953840000000     0.046405000000     0.539900000000     0          
O        O      0.712890000000     0.164140000000     0.602673333333     0          
O        O      0.741370000000     0.250000000000     0.613976666667     0          
O        O      0.775015000000     0.170380000000     0.607673333333     0          
O        O      0.820520000000     0.118815000000     0.650246666667     0          
O        O      0.834180000000     0.202460000000     0.624833333333     0          
O        O      0.823555000000     0.126980000000     0.581233333333     0          
O        O      0.887260000000     0.132150000000     0.583980000000     0          
O        O      0.847410000000     0.109740000000     0.522583333333     0          
O        O      0.857965000000     0.047540000000     0.576783333333     0          
O        O      0.889555000000     0.000000000000     0.633870000000     0          
O        O      0.912095000000     0.000000000000     0.572993333333     0          
O        O      0.834490000000     0.137820000000     0.453800000000     0          
O        O      0.895345000000     0.115560000000     0.486216666667     0          
O        O      0.850895000000     0.047690000000     0.470600000000     0          
O        O      0.903780000000     0.000000000000     0.501110000000     0          
O        O      0.885015000000     0.000000000000     0.429840000000     0          
O        O      0.940030000000     0.047130000000     0.431560000000     0          
O        O      0.912080000000     0.000000000000     0.371873333333     0          
O        O      0.940270000000     0.138745000000     0.447873333333     0          
O        O      0.993440000000     0.098005000000     0.432910000000     0          
O        O      0.956875000000     0.134630000000     0.519853333333     0          
O        O      0.919790000000     0.203090000000     0.490070000000     0          
O        O      0.866015000000     0.250000000000     0.466516666667     0          
O        O      0.844375000000     0.202420000000     0.405026666667     0          
O        O      0.898995000000     0.250000000000     0.412456666667     0          
O        O      0.882210000000     0.250000000000     0.606070000000     0          
O        O      0.874880000000     0.250000000000     0.341946666667     0          
O        O      0.549835000000     0.113495000000     0.412386666667     0          
O        O      0.928630000000     0.202185000000     0.367013333333     0          
O        O      0.881865000000     0.136415000000     0.349040000000     0          
O        O      0.929825000000     0.143495000000     0.645783333333     0          
O        O      0.931120000000     0.202290000000     0.590266666667     0          
O        O      0.891505000000     0.250000000000     0.537900000000     0          
O        O      0.837730000000     0.111145000000     0.387513333333     0          
O        O      0.858420000000     0.047375000000     0.344726666667     0          
O        O      0.941800000000     0.111235000000     0.380320000000     0          
O        O      0.546160000000     0.046405000000     0.460100000000     0          
O        O      0.787110000000     0.164140000000     0.397326666667     0          
O        O      0.750000000000     0.314910000000     0.333333333333     0          
O        O      0.775015000000     0.329620000000     0.607673333333     0          
O        O      0.820520000000     0.381185000000     0.650246666667     0          
O        O      0.834180000000     0.297540000000     0.624833333333     0          
O        O      0.823555000000     0.373020000000     0.581233333333     0          
O        O      0.887260000000     0.367850000000     0.583980000000     0          
O        O      0.847410000000     0.390260000000     0.522583333333     0          
O        O      0.857965000000     0.452460000000     0.576783333333     0          
O        O      0.834490000000     0.362180000000     0.453800000000     0          
O        O      0.895345000000     0.384440000000     0.486216666667     0          
O        O      0.850895000000     0.452310000000     0.470600000000     0          
O        O      0.940030000000     0.452870000000     0.431560000000     0          
O        O      0.940270000000     0.361255000000     0.447873333333     0          
O        O      0.993440000000     0.401995000000     0.432910000000     0          
O        O      0.956875000000     0.365370000000     0.519853333333     0          
O        O      0.919790000000     0.296910000000     0.490070000000     0          
O        O      0.844375000000     0.297580000000     0.405026666667     0          
O        O      0.549835000000     0.386505000000     0.412386666667     0          
O        O      0.928630000000     0.297815000000     0.367013333333     0          
O        O      0.881865000000     0.363585000000     0.349040000000     0          
O        O      0.929825000000     0.356505000000     0.645783333333     0          
O        O      0.931120000000     0.297710000000     0.590266666667     0          
O        O      0.837730000000     0.388855000000     0.387513333333     0          
O        O      0.858420000000     0.452625000000     0.344726666667     0          
O        O      0.941800000000     0.388765000000     0.380320000000     0          
O        O      0.546160000000     0.453595000000     0.460100000000     0          
O        O      0.787110000000     0.335860000000     0.397326666667     0          
O        O      0.724985000000     0.329620000000     0.392326666667     0          
O        O      0.679480000000     0.381185000000     0.349753333333     0          
O        O      0.665820000000     0.297540000000     0.375166666667     0          
O        O      0.676445000000     0.373020000000     0.418766666667     0          
O        O      0.612740000000     0.367850000000     0.416020000000     0          
O        O      0.652590000000     0.390260000000     0.477416666667     0          
O        O      0.642035000000     0.452460000000     0.423216666667     0          
O        O      0.665510000000     0.362180000000     0.546200000000     0          
O        O      0.604655000000     0.384440000000     0.513783333333     0          
O        O      0.649105000000     0.452310000000     0.529400000000     0          
O        O      0.559970000000     0.452870000000     0.568440000000     0          
O        O      0.559730000000     0.361255000000     0.552126666667     0          
O        O      0.506560000000     0.401995000000     0.567090000000     0          
O        O      0.543125000000     0.365370000000     0.480146666667     0          
O        O      0.580210000000     0.296910000000     0.509930000000     0          
O        O      0.655625000000     0.297580000000     0.594973333333     0          
O        O      0.950165000000     0.386505000000     0.587613333333     0          
O        O      0.571370000000     0.297815000000     0.632986666667     0          
O        O      0.618135000000     0.363585000000     0.650960000000     0          
O        O      0.570175000000     0.356505000000     0.354216666667     0          
O        O      0.568880000000     0.297710000000     0.409733333333     0          
O        O      0.662270000000     0.388855000000     0.612486666667     0          
O        O      0.641580000000     0.452625000000     0.655273333333     0          
O        O      0.558200000000     0.388765000000     0.619680000000     0          
O        O      0.953840000000     0.453595000000     0.539900000000     0          
O        O      0.712890000000     0.335860000000     0.602673333333     0          
O        O      0.750000000000     0.185090000000     0.666666666667     0          
O        O      0.758630000000     0.250000000000     0.719356666667     0          
O        O      0.724985000000     0.170380000000     0.725660000000     0          
O        O      0.679480000000     0.118815000000     0.683086666667     0          
O        O      0.665820000000     0.202460000000     0.708500000000     0          
O        O      0.676445000000     0.126980000000     0.752100000000     0          
O        O      0.612740000000     0.132150000000     0.749353333333     0          
O        O      0.652590000000     0.109740000000     0.810750000000     0          
O        O      0.642035000000     0.047540000000     0.756550000000     0          
O        O      0.610445000000     0.000000000000     0.699463333333     0          
O        O      0.587905000000     0.000000000000     0.760340000000     0          
O        O      0.665510000000     0.137820000000     0.879533333333     0          
O        O      0.604655000000     0.115560000000     0.847116666667     0          
O        O      0.649105000000     0.047690000000     0.862733333333     0          
O        O      0.596220000000     0.000000000000     0.832223333333     0          
O        O      0.614985000000     0.000000000000     0.903493333333     0          
O        O      0.559970000000     0.047130000000     0.901773333333     0          
O        O      0.587920000000     0.000000000000     0.961460000000     0          
O        O      0.559730000000     0.138745000000     0.885460000000     0          
O        O      0.506560000000     0.098005000000     0.900423333333     0          
O        O      0.543125000000     0.134630000000     0.813480000000     0          
O        O      0.580210000000     0.203090000000     0.843263333333     0          
O        O      0.633985000000     0.250000000000     0.866816666667     0          
O        O      0.655625000000     0.202420000000     0.928306666667     0          
O        O      0.601005000000     0.250000000000     0.920876666667     0          
O        O      0.617790000000     0.250000000000     0.727263333333     0          
O        O      0.625120000000     0.250000000000     0.991386666667     0          
O        O      0.950165000000     0.113495000000     0.920946666667     0          
O        O      0.571370000000     0.202185000000     0.966320000000     0          
O        O      0.618135000000     0.136415000000     0.984293333333     0          
O        O      0.570175000000     0.143495000000     0.687550000000     0          
O        O      0.568880000000     0.202290000000     0.743066666667     0          
O        O      0.608495000000     0.250000000000     0.795433333333     0          
O        O      0.662270000000     0.111145000000     0.945820000000     0          
O        O      0.641580000000     0.047375000000     0.988606666667     0          
O        O      0.558200000000     0.111235000000     0.953013333333     0          
O        O      0.953840000000     0.046405000000     0.873233333333     0          
O        O      0.712890000000     0.164140000000     0.936006666667     0          
O        O      0.741370000000     0.250000000000     0.947310000000     0          
O        O      0.775015000000     0.170380000000     0.941006666667     0          
O        O      0.820520000000     0.118815000000     0.983580000000     0          
O        O      0.834180000000     0.202460000000     0.958166666667     0          
O        O      0.823555000000     0.126980000000     0.914566666667     0          
O        O      0.887260000000     0.132150000000     0.917313333333     0          
O        O      0.847410000000     0.109740000000     0.855916666667     0          
O        O      0.857965000000     0.047540000000     0.910116666667     0          
O        O      0.889555000000     0.000000000000     0.967203333333     0          
O        O      0.912095000000     0.000000000000     0.906326666667     0          
O        O      0.834490000000     0.137820000000     0.787133333333     0          
O        O      0.895345000000     0.115560000000     0.819550000000     0          
O        O      0.850895000000     0.047690000000     0.803933333333     0          
O        O      0.903780000000     0.000000000000     0.834443333333     0          
O        O      0.885015000000     0.000000000000     0.763173333333     0          
O        O      0.940030000000     0.047130000000     0.764893333333     0          
O        O      0.912080000000     0.000000000000     0.705206666667     0          
O        O      0.940270000000     0.138745000000     0.781206666667     0          
O        O      0.993440000000     0.098005000000     0.766243333333     0          
O        O      0.956875000000     0.134630000000     0.853186666667     0          
O        O      0.919790000000     0.203090000000     0.823403333333     0          
O        O      0.866015000000     0.250000000000     0.799850000000     0          
O        O      0.844375000000     0.202420000000     0.738360000000     0          
O        O      0.898995000000     0.250000000000     0.745790000000     0          
O        O      0.882210000000     0.250000000000     0.939403333333     0          
O        O      0.874880000000     0.250000000000     0.675280000000     0          
O        O      0.549835000000     0.113495000000     0.745720000000     0          
O        O      0.928630000000     0.202185000000     0.700346666667     0          
O        O      0.881865000000     0.136415000000     0.682373333333     0          
O        O      0.929825000000     0.143495000000     0.979116666667     0          
O        O      0.931120000000     0.202290000000     0.923600000000     0          
O        O      0.891505000000     0.250000000000     0.871233333333     0          
O        O      0.837730000000     0.111145000000     0.720846666667     0          
O        O      0.858420000000     0.047375000000     0.678060000000     0          
O        O      0.941800000000     0.111235000000     0.713653333333     0          
O        O      0.546160000000     0.046405000000     0.793433333333     0          
O        O      0.787110000000     0.164140000000     0.730660000000     0          
O        O      0.750000000000     0.314910000000     0.666666666667     0          
O        O      0.775015000000     0.329620000000     0.941006666667     0          
O        O      0.820520000000     0.381185000000     0.983580000000     0          
O        O      0.834180000000     0.297540000000     0.958166666667     0          
O        O      0.823555000000     0.373020000000     0.914566666667     0          
O        O      0.887260000000     0.367850000000     0.917313333333     0          
O        O      0.847410000000     0.390260000000     0.855916666667     0          
O        O      0.857965000000     0.452460000000     0.910116666667     0          
O        O      0.834490000000     0.362180000000     0.787133333333     0          
O        O      0.895345000000     0.384440000000     0.819550000000     0          
O        O      0.850895000000     0.452310000000     0.803933333333     0          
O        O      0.940030000000     0.452870000000     0.764893333333     0          
O        O      0.940270000000     0.361255000000     0.781206666667     0          
O        O      0.993440000000     0.401995000000     0.766243333333     0          
O        O      0.956875000000     0.365370000000     0.853186666667     0          
O        O      0.919790000000     0.296910000000     0.823403333333     0          
O        O      0.844375000000     0.297580000000     0.738360000000     0          
O        O      0.549835000000     0.386505000000     0.745720000000     0          
O        O      0.928630000000     0.297815000000     0.700346666667     0          
O        O      0.881865000000     0.363585000000     0.682373333333     0          
O        O      0.929825000000     0.356505000000     0.979116666667     0          
O        O      0.931120000000     0.297710000000     0.923600000000     0          
O        O      0.837730000000     0.388855000000     0.720846666667     0          
O        O      0.858420000000     0.452625000000     0.678060000000     0          
O        O      0.941800000000     0.388765000000     0.713653333333     0          
O        O      0.546160000000     0.453595000000     0.793433333333     0          
O        O      0.787110000000     0.335860000000     0.730660000000     0          
O        O      0.724985000000     0.329620000000     0.725660000000     0          
O        O      0.679480000000     0.381185000000     0.683086666667     0          
O        O      0.665820000000     0.297540000000     0.708500000000     0          
O        O      0.676445000000     0.373020000000     0.752100000000     0          
O        O      0.612740000000     0.367850000000     0.749353333333     0          
O        O      0.652590000000     0.390260000000     0.810750000000     0          
O        O      0.642035000000     0.452460000000     0.756550000000     0          
O        O      0.665510000000     0.362180000000     0.879533333333     0          
O        O      0.604655000000     0.384440000000     0.847116666667     0          
O        O      0.649105000000     0.452310000000     0.862733333333     0          
O        O      0.559970000000     0.452870000000     0.901773333333     0          
O        O      0.559730000000     0.361255000000     0.885460000000     0          
O        O      0.506560000000     0.401995000000     0.900423333333     0          
O        O      0.543125000000     0.365370000000     0.813480000000     0          
O        O      0.580210000000     0.296910000000     0.843263333333     0          
O        O      0.655625000000     0.297580000000     0.928306666667     0          
O        O      0.950165000000     0.386505000000     0.920946666667     0          
O        O      0.571370000000     0.297815000000     0.966320000000     0          
O        O      0.618135000000     0.363585000000     0.984293333333     0          
O        O      0.570175000000     0.356505000000     0.687550000000     0          
O        O      0.568880000000     0.297710000000     0.743066666667     0          
O        O      0.662270000000     0.388855000000     0.945820000000     0          
O        O      0.641580000000     0.452625000000     0.988606666667     0          
O        O      0.558200000000     0.388765000000     0.953013333333     0          
O        O      0.953840000000     0.453595000000     0.873233333333     0          
O        O      0.712890000000     0.335860000000     0.936006666667     0          
O        O      0.750000000000     0.685090000000     0.000000000000     0          
O        O      0.758630000000     0.750000000000     0.052690000000     0          
O        O      0.724985000000     0.670380000000     0.058993333333     0          
O        O      0.679480000000     0.618815000000     0.016420000000     0          
O        O      0.665820000000     0.702460000000     0.041833333333     0          
O        O      0.676445000000     0.626980000000     0.085433333333     0          
O        O      0.612740000000     0.632150000000     0.082686666667     0          
O        O      0.652590000000     0.609740000000     0.144083333333     0          
O        O      0.642035000000     0.547540000000     0.089883333333     0          
O        O      0.610445000000     0.500000000000     0.032796666667     0          
O        O      0.587905000000     0.500000000000     0.093673333333     0          
O        O      0.665510000000     0.637820000000     0.212866666667     0          
O        O      0.604655000000     0.615560000000     0.180450000000     0          
O        O      0.649105000000     0.547690000000     0.196066666667     0          
O        O      0.596220000000     0.500000000000     0.165556666667     0          
O        O      0.614985000000     0.500000000000     0.236826666667     0          
O        O      0.559970000000     0.547130000000     0.235106666667     0          
O        O      0.587920000000     0.500000000000     0.294793333333     0          
O        O      0.559730000000     0.638745000000     0.218793333333     0          
O        O      0.506560000000     0.598005000000     0.233756666667     0          
O        O      0.543125000000     0.634630000000     0.146813333333     0          
O        O      0.580210000000     0.703090000000     0.176596666667     0          
O        O      0.633985000000     0.750000000000     0.200150000000     0          
O        O      0.655625000000     0.702420000000     0.261640000000     0          
O        O      0.601005000000     0.750000000000     0.254210000000     0          
O        O      0.617790000000     0.750000000000     0.060596666667     0          
O        O      0.625120000000     0.750000000000     0.324720000000     0          
O        O      0.950165000000     0.613495000000     0.254280000000     0          
O        O      0.571370000000     0.702185000000     0.299653333333     0          
O        O      0.618135000000     0.636415000000     0.317626666667     0          
O        O      0.570175000000     0.643495000000     0.020883333333     0          
O        O      0.568880000000     0.702290000000     0.076400000000     0          
O        O      0.608495000000     0.750000000000     0.128766666667     0          
O        O      0.662270000000     0.611145000000     0.279153333333     0          
O        O      0.641580000000     0.547375000000     0.321940000000     0          
O        O      0.558200000000     0.611235000000     0.286346666667     0          
O        O      0.953840000000     0.546405000000     0.206566666667     0          
O        O      0.712890000000     0.664140000000     0.269340000000     0          
O        O      0.741370000000     0.750000000000     0.280643333333     0          
O        O      0.775015000000     0.670380000000     0.274340000000     0          
O        O      0.820520000000     0.618815000000     0.316913333333     0          
O        O      0.834180000000     0.702460000000     0.291500000000     0          
O        O      0.823555000000     0.626980000000     0.247900000000     0          
O        O      0.887260000000     0.632150000000     0.250646666667     0          
O        O      0.847410000000     0.609740000000     0.189250000000     0          
O        O      0.857965000000     0.547540000000     0.243450000000     0          
O        O      0.889555000000     0.500000000000     0.300536666667     0          
O        O      0.912095000000     0.500000000000     0.239660000000     0          
O        O      0.834490000000     0.637820000000     0.120466666667     0          
O        O      0.895345000000     0.615560000000     0.152883333333     0          
O        O      0.850895000000     0.547690000000     0.137266666667     0          
O        O      0.903780000000     0.500000000000     0.167776666667     0          
O        O      0.885015000000     0.500000000000     0.096506666667     0          
O        O      0.940030000000     0.547130000000     0.098226666667     0          
O        O      0.912080000000     0.500000000000     0.038540000000     0          
O        O      0.940270000000     0.638745000000     0.114540000000     0          
O        O      0.993440000000     0.598005000000     0.099576666667     0          
O        O      0.956875000000     0.634630000000     0.186520000000     0          
O        O      0.919790000000     0.703090000000     0.156736666667     0          
O        O      0.866015000000     0.750000000000     0.133183333333     0          
O        O      0.844375000000     0.702420000000     0.071693333333     0          
O        O      0.898995000000     0.750000000000     0.079123333333     0          
O        O      0.882210000000     0.750000000000     0.272736666667     0          
O        O      0.874880000000     0.750000000000     0.008613333333     0          
O        O      0.549835000000     0.613495000000     0.079053333333     0          
O        O      0.928630000000     0.702185000000     0.033680000000     0          
O        O      0.881865000000     0.636415000000     0.015706666667     0          
O        O      0.929825000000     0.643495000000     0.312450000000     0          
O        O      0.931120000000     0.702290000000     0.256933333333     0          
O        O      0.891505000000     0.750000000000     0.204566666667     0          
O        O      0.837730000000     0.611145000000     0.054180000000     0          
O        O      0.858420000000     0.547375000000     0.011393333333     0          
O        O      0.941800000000     0.611235000000     0.046986666667     0          
O        O      0.546160000000     0.546405000000     0.126766666667     0          
O        O      0.787110000000     0.664140000000     0.063993333333     0          
O        O      0.750000000000     0.814910000000     0.000000000000     0          
O        O      0.775015000000     0.829620000000     0.274340000000     0          
O        O      0.820520000000     0.881185000000     0.316913333333     0          
O        O      0.834180000000     0.797540000000     0.291500000000     0          
O        O      0.823555000000     0.873020000000     0.247900000000     0          
O        O      0.887260000000     0.867850000000     0.250646666667     0          
O        O      0.847410000000     0.890260000000     0.189250000000     0          
O        O      0.857965000000     0.952460000000     0.243450000000     0          
O        O      0.834490000000     0.862180000000     0.120466666667     0          
O        O      0.895345000000     0.884440000000     0.152883333333     0          
O        O      0.850895000000     0.952310000000     0.137266666667     0          
O        O      0.940030000000     0.952870000000     0.098226666667     0          
O        O      0.940270000000     0.861255000000     0.114540000000     0          
O        O      0.993440000000     0.901995000000     0.099576666667     0          
O        O      0.956875000000     0.865370000000     0.186520000000     0          
O        O      0.919790000000     0.796910000000     0.156736666667     0          
O        O      0.844375000000     0.797580000000     0.071693333333     0          
O        O      0.549835000000     0.886505000000     0.079053333333     0          
O        O      0.928630000000     0.797815000000     0.033680000000     0          
O        O      0.881865000000     0.863585000000     0.015706666667     0          
O        O      0.929825000000     0.856505000000     0.312450000000     0          
O        O      0.931120000000     0.797710000000     0.256933333333     0          
O        O      0.837730000000     0.888855000000     0.054180000000     0          
O        O      0.858420000000     0.952625000000     0.011393333333     0          
O        O      0.941800000000     0.888765000000     0.046986666667     0          
O        O      0.546160000000     0.953595000000     0.126766666667     0          
O        O      0.787110000000     0.835860000000     0.063993333333     0          
O        O      0.724985000000     0.829620000000     0.058993333333     0          
O        O      0.679480000000     0.881185000000     0.016420000000     0          
O        O      0.665820000000     0.797540000000     0.041833333333     0          
O        O      0.676445000000     0.873020000000     0.085433333333     0          
O        O      0.612740000000     0.867850000000     0.082686666667     0          
O        O      0.652590000000     0.890260000000     0.144083333333     0          
O        O      0.642035000000     0.952460000000     0.089883333333     0          
O        O      0.665510000000     0.862180000000     0.212866666667     0          
O        O      0.604655000000     0.884440000000     0.180450000000     0          
O        O      0.649105000000     0.952310000000     0.196066666667     0          
O        O      0.559970000000     0.952870000000     0.235106666667     0          
O        O      0.559730000000     0.861255000000     0.218793333333     0          
O        O      0.506560000000     0.901995000000     0.233756666667     0          
O        O      0.543125000000     0.865370000000     0.146813333333     0          
O        O      0.580210000000     0.796910000000     0.176596666667     0          
O        O      0.655625000000     0.797580000000     0.261640000000     0          
O        O      0.950165000000     0.886505000000     0.254280000000     0          
O        O      0.571370000000     0.797815000000     0.299653333333     0          
O        O      0.618135000000     0.863585000000     0.317626666667     0          
O        O      0.570175000000     0.856505000000     0.020883333333     0          
O        O      0.568880000000     0.797710000000     0.076400000000     0          
O        O      0.662270000000     0.888855000000     0.279153333333     0          
O        O      0.641580000000     0.952625000000     0.321940000000     0          
O        O      0.558200000000     0.888765000000     0.286346666667     0          
O        O      0.953840000000     0.953595000000     0.206566666667     0          
O        O      0.712890000000     0.835860000000     0.269340000000     0          
O        O      0.750000000000     0.685090000000     0.333333333333     0          
O        O      0.758630000000     0.750000000000     0.386023333333     0          
O        O      0.724985000000     0.670380000000     0.392326666667     0          
O        O      0.679480000000     0.618815000000     0.349753333333     0          
O        O      0.665820000000     0.702460000000     0.375166666667     0          
O        O      0.676445000000     0.626980000000     0.418766666667     0          
O        O      0.612740000000     0.632150000000     0.416020000000     0          
O        O      0.652590000000     0.609740000000     0.477416666667     0          
O        O      0.642035000000     0.547540000000     0.423216666667     0          
O        O      0.610445000000     0.500000000000     0.366130000000     0          
O        O      0.587905000000     0.500000000000     0.427006666667     0          
O        O      0.665510000000     0.637820000000     0.546200000000     0          
O        O      0.604655000000     0.615560000000     0.513783333333     0          
O        O      0.649105000000     0.547690000000     0.529400000000     0          
O        O      0.596220000000     0.500000000000     0.498890000000     0          
O        O      0.614985000000     0.500000000000     0.570160000000     0          
O        O      0.559970000000     0.547130000000     0.568440000000     0          
O        O      0.587920000000     0.500000000000     0.628126666667     0          
O        O      0.559730000000     0.638745000000     0.552126666667     0          
O        O      0.506560000000     0.598005000000     0.567090000000     0          
O        O      0.543125000000     0.634630000000     0.480146666667     0          
O        O      0.580210000000     0.703090000000     0.509930000000     0          
O        O      0.633985000000     0.750000000000     0.533483333333     0          
O        O      0.655625000000     0.702420000000     0.594973333333     0          
O        O      0.601005000000     0.750000000000     0.587543333333     0          
O        O      0.617790000000     0.750000000000     0.393930000000     0          
O        O      0.625120000000     0.750000000000     0.658053333333     0          
O        O      0.950165000000     0.613495000000     0.587613333333     0          
O        O      0.571370000000     0.702185000000     0.632986666667     0          
O        O      0.618135000000     0.636415000000     0.650960000000     0          
O        O      0.570175000000     0.643495000000     0.354216666667     0          
O        O      0.568880000000     0.702290000000     0.409733333333     0          
O        O      0.608495000000     0.750000000000     0.462100000000     0          
O        O      0.662270000000     0.611145000000     0.612486666667     0          
O        O      0.641580000000     0.547375000000     0.655273333333     0          
O        O      0.558200000000     0.611235000000     0.619680000000     0          
O        O      0.953840000000     0.546405000000     0.539900000000     0          
O        O      0.712890000000     0.664140000000     0.602673333333     0          
O        O      0.741370000000     0.750000000000     0.613976666667     0          
O        O      0.775015000000     0.670380000000     0.607673333333     0          
O        O      0.820520000000     0.618815000000     0.650246666667     0          
O        O      0.834180000000     0.702460000000     0.624833333333     0          
O        O      0.823555000000     0.626980000000     0.581233333333     0          
O        O      0.887260000000     0.632150000000     0.583980000000     0          
O        O      0.847410000000     0.609740000000     0.522583333333     0          
O        O      0.857965000000     0.547540000000     0.576783333333     0          
O        O      0.889555000000     0.500000000000     0.633870000000     0          
O        O      0.912095000000     0.500000000000     0.572993333333     0          
O        O      0.834490000000     0.637820000000     0.453800000000     0          
O        O      0.895345000000     0.615560000000     0.486216666667     0          
O        O      0.850895000000     0.547690000000     0.470600000000     0          
O        O      0.903780000000     0.500000000000     0.501110000000     0          
O        O      0.885015000000     0.500000000000     0.429840000000     0          
O        O      0.940030000000     0.547130000000     0.431560000000     0          
O        O      0.912080000000     0.500000000000     0.371873333333     0          
O        O      0.940270000000     0.638745000000     0.447873333333     0          
O        O      0.993440000000     0.598005000000     0.432910000000     0          
O        O      0.956875000000     0.634630000000     0.519853333333     0          
O        O      0.919790000000     0.703090000000     0.490070000000     0          
O        O      0.866015000000     0.750000000000     0.466516666667     0          
O        O      0.844375000000     0.702420000000     0.405026666667     0          
O        O      0.898995000000     0.750000000000     0.412456666667     0          
O        O      0.882210000000     0.750000000000     0.606070000000     0          
O        O      0.874880000000     0.750000000000     0.341946666667     0          
O        O      0.549835000000     0.613495000000     0.412386666667     0          
O        O      0.928630000000     0.702185000000     0.367013333333     0          
O        O      0.881865000000     0.636415000000     0.349040000000     0          
O        O      0.929825000000     0.643495000000     0.645783333333     0          
O        O      0.931120000000     0.702290000000     0.590266666667     0          
O        O      0.891505000000     0.750000000000     0.537900000000     0          
O        O      0.837730000000     0.611145000000     0.387513333333     0          
O        O      0.858420000000     0.547375000000     0.344726666667     0          
O        O      0.941800000000     0.611235000000     0.380320000000     0          
O        O      0.546160000000     0.546405000000     0.460100000000     0          
O        O      0.787110000000     0.664140000000     0.397326666667     0          
O        O      0.750000000000     0.814910000000     0.333333333333     0          
O        O      0.775015000000     0.829620000000     0.607673333333     0          
O        O      0.820520000000     0.881185000000     0.650246666667     0          
O        O      0.834180000000     0.797540000000     0.624833333333     0          
O        O      0.823555000000     0.873020000000     0.581233333333     0          
O        O      0.887260000000     0.867850000000     0.583980000000     0          
O        O      0.847410000000     0.890260000000     0.522583333333     0          
O        O      0.857965000000     0.952460000000     0.576783333333     0          
O        O      0.834490000000     0.862180000000     0.453800000000     0          
O        O      0.895345000000     0.884440000000     0.486216666667     0          
O        O      0.850895000000     0.952310000000     0.470600000000     0          
O        O      0.940030000000     0.952870000000     0.431560000000     0          
O        O      0.940270000000     0.861255000000     0.447873333333     0          
O        O      0.993440000000     0.901995000000     0.432910000000     0          
O        O      0.956875000000     0.865370000000     0.519853333333     0          
O        O      0.919790000000     0.796910000000     0.490070000000     0          
O        O      0.844375000000     0.797580000000     0.405026666667     0          
O        O      0.549835000000     0.886505000000     0.412386666667     0          
O        O      0.928630000000     0.797815000000     0.367013333333     0          
O        O      0.881865000000     0.863585000000     0.349040000000     0          
O        O      0.929825000000     0.856505000000     0.645783333333     0          
O        O      0.931120000000     0.797710000000     0.590266666667     0          
O        O      0.837730000000     0.888855000000     0.387513333333     0          
O        O      0.858420000000     0.952625000000     0.344726666667     0          
O        O      0.941800000000     0.888765000000     0.380320000000     0          
O        O      0.546160000000     0.953595000000     0.460100000000     0          
O        O      0.787110000000     0.835860000000     0.397326666667     0          
O        O      0.724985000000     0.829620000000     0.392326666667     0          
O        O      0.679480000000     0.881185000000     0.349753333333     0          
O        O      0.665820000000     0.797540000000     0.375166666667     0          
O        O      0.676445000000     0.873020000000     0.418766666667     0          
O        O      0.612740000000     0.867850000000     0.416020000000     0          
O        O      0.652590000000     0.890260000000     0.477416666667     0          
O        O      0.642035000000     0.952460000000     0.423216666667     0          
O        O      0.665510000000     0.862180000000     0.546200000000     0          
O        O      0.604655000000     0.884440000000     0.513783333333     0          
O        O      0.649105000000     0.952310000000     0.529400000000     0          
O        O      0.559970000000     0.952870000000     0.568440000000     0          
O        O      0.559730000000     0.861255000000     0.552126666667     0          
O        O      0.506560000000     0.901995000000     0.567090000000     0          
O        O      0.543125000000     0.865370000000     0.480146666667     0          
O        O      0.580210000000     0.796910000000     0.509930000000     0          
O        O      0.655625000000     0.797580000000     0.594973333333     0          
O        O      0.950165000000     0.886505000000     0.587613333333     0          
O        O      0.571370000000     0.797815000000     0.632986666667     0          
O        O      0.618135000000     0.863585000000     0.650960000000     0          
O        O      0.570175000000     0.856505000000     0.354216666667     0          
O        O      0.568880000000     0.797710000000     0.409733333333     0          
O        O      0.662270000000     0.888855000000     0.612486666667     0          
O        O      0.641580000000     0.952625000000     0.655273333333     0          
O        O      0.558200000000     0.888765000000     0.619680000000     0          
O        O      0.953840000000     0.953595000000     0.539900000000     0          
O        O      0.712890000000     0.835860000000     0.602673333333     0          
O        O      0.750000000000     0.685090000000     0.666666666667     0          
O        O      0.758630000000     0.750000000000     0.719356666667     0          
O        O      0.724985000000     0.670380000000     0.725660000000     0          
O        O      0.679480000000     0.618815000000     0.683086666667     0          
O        O      0.665820000000     0.702460000000     0.708500000000     0          
O        O      0.676445000000     0.626980000000     0.752100000000     0          
O        O      0.612740000000     0.632150000000     0.749353333333     0          
O        O      0.652590000000     0.609740000000     0.810750000000     0          
O        O      0.642035000000     0.547540000000     0.756550000000     0          
O        O      0.610445000000     0.500000000000     0.699463333333     0          
O        O      0.587905000000     0.500000000000     0.760340000000     0          
O        O      0.665510000000     0.637820000000     0.879533333333     0          
O        O      0.604655000000     0.615560000000     0.847116666667     0          
O        O      0.649105000000     0.547690000000     0.862733333333     0          
O        O      0.596220000000     0.500000000000     0.832223333333     0          
O        O      0.614985000000     0.500000000000     0.903493333333     0          
O        O      0.559970000000     0.547130000000     0.901773333333     0          
O        O      0.587920000000     0.500000000000     0.961460000000     0          
O        O      0.559730000000     0.638745000000     0.885460000000     0          
O        O      0.506560000000     0.598005000000     0.900423333333     0          
O        O      0.543125000000     0.634630000000     0.813480000000     0          
O        O      0.580210000000     0.703090000000     0.843263333333     0          
O        O      0.633985000000     0.750000000000     0.866816666667     0          
O        O      0.655625000000     0.702420000000     0.928306666667     0          
O        O      0.601005000000     0.750000000000     0.920876666667     0          
O        O      0.617790000000     0.750000000000     0.727263333333     0          
O        O      0.625120000000     0.750000000000     0.991386666667     0          
O        O      0.950165000000     0.613495000000     0.920946666667     0          
O        O      0.571370000000     0.702185000000     0.966320000000     0          
O        O      0.618135000000     0.636415000000     0.984293333333     0          
O        O      0.570175000000     0.643495000000     0.687550000000     0          
O        O      0.568880000000     0.702290000000     0.743066666667     0          
O        O      0.608495000000     0.750000000000     0.795433333333     0          
O        O      0.662270000000     0.611145000000     0.945820000000     0          
O        O      0.641580000000     0.547375000000     0.988606666667     0          
O        O      0.558200000000     0.611235000000     0.953013333333     0          
O        O      0.953840000000     0.546405000000     0.873233333333     0          
O        O      0.712890000000     0.664140000000     0.936006666667     0          
O        O      0.741370000000     0.750000000000     0.947310000000     0          
O        O      0.775015000000     0.670380000000     0.941006666667     0          
O        O      0.820520000000     0.618815000000     0.983580000000     0          
O        O      0.834180000000     0.702460000000     0.958166666667     0          
O        O      0.823555000000     0.626980000000     0.914566666667     0          
O        O      0.887260000000     0.632150000000     0.917313333333     0          
O        O      0.847410000000     0.609740000000     0.855916666667     0          
O        O      0.857965000000     0.547540000000     0.910116666667     0          
O        O      0.889555000000     0.500000000000     0.967203333333     0          
O        O      0.912095000000     0.500000000000     0.906326666667     0          
O        O      0.834490000000     0.637820000000     0.787133333333     0          
O        O      0.895345000000     0.615560000000     0.819550000000     0          
O        O      0.850895000000     0.547690000000     0.803933333333     0          
O        O      0.903780000000     0.500000000000     0.834443333333     0          
O        O      0.885015000000     0.500000000000     0.763173333333     0          
O        O      0.940030000000     0.547130000000     0.764893333333     0          
O        O      0.912080000000     0.500000000000     0.705206666667     0          
O        O      0.940270000000     0.638745000000     0.781206666667     0          
O        O      0.993440000000     0.598005000000     0.766243333333     0          
O        O      0.956875000000     0.634630000000     0.853186666667     0          
O        O      0.919790000000     0.703090000000     0.823403333333     0          
O        O      0.866015000000     0.750000000000     0.799850000000     0          
O        O      0.844375000000     0.702420000000     0.738360000000     0          
O        O      0.898995000000     0.750000000000     0.745790000000     0          
O        O      0.882210000000     0.750000000000     0.939403333333     0          
O        O      0.874880000000     0.750000000000     0.675280000000     0          
O        O      0.549835000000     0.613495000000     0.745720000000     0          
O        O      0.928630000000     0.702185000000     0.700346666667     0          
O        O      0.881865000000     0.636415000000     0.682373333333     0          
O        O      0.929825000000     0.643495000000     0.979116666667     0          
O        O      0.931120000000     0.702290000000     0.923600000000     0          
O        O      0.891505000000     0.750000000000     0.871233333333     0          
O        O      0.837730000000     0.611145000000     0.720846666667     0          
O        O      0.858420000000     0.547375000000     0.678060000000     0          
O        O      0.941800000000     0.611235000000     0.713653333333     0          
O        O      0.546160000000     0.546405000000     0.793433333333     0          
O        O      0.787110000000     0.664140000000     0.730660000000     0          
O        O      0.750000000000     0.814910000000     0.666666666667     0          
O        O      0.775015000000     0.829620000000     0.941006666667     0          
O        O      0.820520000000     0.881185000000     0.983580000000     0          
O        O      0.834180000000     0.797540000000     0.958166666667     0          
O        O      0.823555000000     0.873020000000     0.914566666667     0          
O        O      0.887260000000     0.867850000000     0.917313333333     0          
O        O      0.847410000000     0.890260000000     0.855916666667     0          
O        O      0.857965000000     0.952460000000     0.910116666667     0          
O        O      0.834490000000     0.862180000000     0.787133333333     0          
O        O      0.895345000000     0.884440000000     0.819550000000     0          
O        O      0.850895000000     0.952310000000     0.803933333333     0          
O        O      0.940030000000     0.952870000000     0.764893333333     0          
O        O      0.940270000000     0.861255000000     0.781206666667     0          
O        O      0.993440000000     0.901995000000     0.766243333333     0          
O        O      0.956875000000     0.865370000000     0.853186666667     0          
O        O      0.919790000000     0.796910000000     0.823403333333     0          
O        O      0.844375000000     0.797580000000     0.738360000000     0          
O        O      0.549835000000     0.886505000000     0.745720000000     0          
O        O      0.928630000000     0.797815000000     0.700346666667     0          
O        O      0.881865000000     0.863585000000     0.682373333333     0          
O        O      0.929825000000     0.856505000000     0.979116666667     0          
O        O      0.931120000000     0.797710000000     0.923600000000     0          
O        O      0.837730000000     0.888855000000     0.720846666667     0          
O        O      0.858420000000     0.952625000000     0.678060000000     0          
O        O      0.941800000000     0.888765000000     0.713653333333     0          
O        O      0.546160000000     0.953595000000     0.793433333333     0          
O        O      0.787110000000     0.835860000000     0.730660000000     0          
O        O      0.724985000000     0.829620000000     0.725660000000     0          
O        O      0.679480000000     0.881185000000     0.683086666667     0          
O        O      0.665820000000     0.797540000000     0.708500000000     0          
O        O      0.676445000000     0.873020000000     0.752100000000     0          
O        O      0.612740000000     0.867850000000     0.749353333333     0          
O        O      0.652590000000     0.890260000000     0.810750000000     0          
O        O      0.642035000000     0.952460000000     0.756550000000     0          
O        O      0.665510000000     0.862180000000     0.879533333333     0          
O        O      0.604655000000     0.884440000000     0.847116666667     0          
O        O      0.649105000000     0.952310000000     0.862733333333     0          
O        O      0.559970000000     0.952870000000     0.901773333333     0          
O        O      0.559730000000     0.861255000000     0.885460000000     0          
O        O      0.506560000000     0.901995000000     0.900423333333     0          
O        O      0.543125000000     0.865370000000     0.813480000000     0          
O        O      0.580210000000     0.796910000000     0.843263333333     0          
O        O      0.655625000000     0.797580000000     0.928306666667     0          
O        O      0.950165000000     0.886505000000     0.920946666667     0          
O        O      0.571370000000     0.797815000000     0.966320000000     0          
O        O      0.618135000000     0.863585000000     0.984293333333     0          
O        O      0.570175000000     0.856505000000     0.687550000000     0          
O        O      0.568880000000     0.797710000000     0.743066666667     0          
O        O      0.662270000000     0.888855000000     0.945820000000     0          
O        O      0.641580000000     0.952625000000     0.988606666667     0          
O        O      0.558200000000     0.888765000000     0.953013333333     0          
O        O      0.953840000000     0.953595000000     0.873233333333     0          
O        O      0.712890000000     0.835860000000     0.936006666667     0          


