data_zeolite

_audit_creation_method RASPA-1.0
_audit_creation_date 2021-1-9
_audit_author_name ''

_cell_length_a    27.826
_cell_length_b    26.081
_cell_length_c    27.888
_cell_angle_alpha 90
_cell_angle_beta  90
_cell_angle_gamma 90
_cell_volume      20239.2

_symmetry_cell_setting          orthorhombic
_symmetry_space_group_name_Hall 'P 1'
_symmetry_space_group_name_H-M  'P 1'
_symmetry_Int_Tables_number     1

_symmetry_equiv_pos_as_xyz 'x,y,z'

loop_
_atom_site_label
_atom_site_type_symbol
_atom_site_fract_x
_atom_site_fract_y
_atom_site_fract_z
_atom_site_charge
O        O      0.088700000000     0.092000000000     0.091200000000     0          
O        O      0.169900000000     0.097900000000     0.046800000000     0          
O        O      0.158700000000     0.152400000000     0.123950000000     0          
O        O      0.167100000000     0.050600000000     0.128500000000     0          
O        O      0.250000000000     0.000000000000     0.125000000000     0          
O        O      0.304700000000     0.000000000000     0.047300000000     0          
O        O      0.060300000000     0.000000000000     0.066850000000     0          
O        O      0.070800000000     0.070300000000     0.000000000000     0          
O        O      0.000000000000     0.077300000000     0.061950000000     0          
O        O      0.306800000000     0.191000000000     0.451650000000     0          
O        O      0.234500000000     0.151300000000     0.000000000000     0          
O        O      0.250000000000     0.250000000000     0.000000000000     0          
O        O      0.250000000000     0.179500000000     0.125000000000     0          
O        O      0.317000000000     0.250000000000     0.125000000000     0          
O        O      0.238600000000     0.050500000000     0.000000000000     0          
T        Si     0.145700000000     0.098500000000     0.099150000000     0          
T        Si     0.055100000000     0.060100000000     0.054750000000     0          
T        Si     0.303000000000     0.193600000000     0.106000000000     0          
T        Si     0.275500000000     0.194800000000     0.000000000000     0          
T        Si     0.203400000000     0.099400000000     0.000000000000     0          
T        Si     0.304200000000     0.000000000000     0.105050000000     0          
T        Si     0.271600000000     0.000000000000     0.000000000000     0          
O        O      0.911300000000     0.908000000000     0.091200000000     0          
O        O      0.830100000000     0.902100000000     0.046800000000     0          
O        O      0.841300000000     0.847600000000     0.123950000000     0          
O        O      0.832900000000     0.949400000000     0.128500000000     0          
O        O      0.750000000000     0.000000000000     0.125000000000     0          
O        O      0.695300000000     0.000000000000     0.047300000000     0          
O        O      0.939700000000     0.000000000000     0.066850000000     0          
O        O      0.929200000000     0.929700000000     0.000000000000     0          
O        O      0.000000000000     0.922700000000     0.061950000000     0          
O        O      0.693200000000     0.809000000000     0.451650000000     0          
O        O      0.765500000000     0.848700000000     0.000000000000     0          
O        O      0.750000000000     0.750000000000     0.000000000000     0          
O        O      0.750000000000     0.820500000000     0.125000000000     0          
O        O      0.683000000000     0.750000000000     0.125000000000     0          
O        O      0.761400000000     0.949500000000     0.000000000000     0          
T        Si     0.854300000000     0.901500000000     0.099150000000     0          
T        Si     0.944900000000     0.939900000000     0.054750000000     0          
T        Si     0.697000000000     0.806400000000     0.106000000000     0          
T        Si     0.724500000000     0.805200000000     0.000000000000     0          
T        Si     0.796600000000     0.900600000000     0.000000000000     0          
T        Si     0.695800000000     0.000000000000     0.105050000000     0          
T        Si     0.728400000000     0.000000000000     0.000000000000     0          
O        O      0.088700000000     0.908000000000     0.408800000000     0          
O        O      0.169900000000     0.902100000000     0.453200000000     0          
O        O      0.158700000000     0.847600000000     0.376050000000     0          
O        O      0.167100000000     0.949400000000     0.371500000000     0          
O        O      0.250000000000     0.000000000000     0.375000000000     0          
O        O      0.304700000000     0.000000000000     0.452700000000     0          
O        O      0.060300000000     0.000000000000     0.433150000000     0          
O        O      0.070800000000     0.929700000000     0.000000000000     0          
O        O      0.000000000000     0.922700000000     0.438050000000     0          
O        O      0.306800000000     0.809000000000     0.048350000000     0          
O        O      0.234500000000     0.848700000000     0.000000000000     0          
O        O      0.250000000000     0.750000000000     0.000000000000     0          
O        O      0.250000000000     0.820500000000     0.375000000000     0          
O        O      0.317000000000     0.750000000000     0.375000000000     0          
O        O      0.238600000000     0.949500000000     0.000000000000     0          
T        Si     0.145700000000     0.901500000000     0.400850000000     0          
T        Si     0.055100000000     0.939900000000     0.445250000000     0          
T        Si     0.303000000000     0.806400000000     0.394000000000     0          
T        Si     0.275500000000     0.805200000000     0.000000000000     0          
T        Si     0.203400000000     0.900600000000     0.000000000000     0          
T        Si     0.304200000000     0.000000000000     0.394950000000     0          
O        O      0.911300000000     0.092000000000     0.408800000000     0          
O        O      0.830100000000     0.097900000000     0.453200000000     0          
O        O      0.841300000000     0.152400000000     0.376050000000     0          
O        O      0.832900000000     0.050600000000     0.371500000000     0          
O        O      0.750000000000     0.000000000000     0.375000000000     0          
O        O      0.695300000000     0.000000000000     0.452700000000     0          
O        O      0.939700000000     0.000000000000     0.433150000000     0          
O        O      0.929200000000     0.070300000000     0.000000000000     0          
O        O      0.000000000000     0.077300000000     0.438050000000     0          
O        O      0.693200000000     0.191000000000     0.048350000000     0          
O        O      0.765500000000     0.151300000000     0.000000000000     0          
O        O      0.750000000000     0.250000000000     0.000000000000     0          
O        O      0.750000000000     0.179500000000     0.375000000000     0          
O        O      0.683000000000     0.250000000000     0.375000000000     0          
O        O      0.761400000000     0.050500000000     0.000000000000     0          
T        Si     0.854300000000     0.098500000000     0.400850000000     0          
T        Si     0.944900000000     0.060100000000     0.445250000000     0          
T        Si     0.697000000000     0.193600000000     0.394000000000     0          
T        Si     0.724500000000     0.194800000000     0.000000000000     0          
T        Si     0.796600000000     0.099400000000     0.000000000000     0          
T        Si     0.695800000000     0.000000000000     0.394950000000     0          
O        O      0.911300000000     0.908000000000     0.408800000000     0          
O        O      0.830100000000     0.902100000000     0.453200000000     0          
O        O      0.841300000000     0.847600000000     0.376050000000     0          
O        O      0.832900000000     0.949400000000     0.371500000000     0          
O        O      0.693200000000     0.809000000000     0.048350000000     0          
O        O      0.750000000000     0.820500000000     0.375000000000     0          
O        O      0.683000000000     0.750000000000     0.375000000000     0          
T        Si     0.854300000000     0.901500000000     0.400850000000     0          
T        Si     0.944900000000     0.939900000000     0.445250000000     0          
T        Si     0.697000000000     0.806400000000     0.394000000000     0          
O        O      0.088700000000     0.092000000000     0.408800000000     0          
O        O      0.169900000000     0.097900000000     0.453200000000     0          
O        O      0.158700000000     0.152400000000     0.376050000000     0          
O        O      0.167100000000     0.050600000000     0.371500000000     0          
O        O      0.306800000000     0.191000000000     0.048350000000     0          
O        O      0.250000000000     0.179500000000     0.375000000000     0          
O        O      0.317000000000     0.250000000000     0.375000000000     0          
T        Si     0.145700000000     0.098500000000     0.400850000000     0          
T        Si     0.055100000000     0.060100000000     0.445250000000     0          
T        Si     0.303000000000     0.193600000000     0.394000000000     0          
O        O      0.911300000000     0.092000000000     0.091200000000     0          
O        O      0.830100000000     0.097900000000     0.046800000000     0          
O        O      0.841300000000     0.152400000000     0.123950000000     0          
O        O      0.832900000000     0.050600000000     0.128500000000     0          
O        O      0.693200000000     0.191000000000     0.451650000000     0          
O        O      0.750000000000     0.179500000000     0.125000000000     0          
O        O      0.683000000000     0.250000000000     0.125000000000     0          
T        Si     0.854300000000     0.098500000000     0.099150000000     0          
T        Si     0.944900000000     0.060100000000     0.054750000000     0          
T        Si     0.697000000000     0.193600000000     0.106000000000     0          
O        O      0.088700000000     0.908000000000     0.091200000000     0          
O        O      0.169900000000     0.902100000000     0.046800000000     0          
O        O      0.158700000000     0.847600000000     0.123950000000     0          
O        O      0.167100000000     0.949400000000     0.128500000000     0          
O        O      0.306800000000     0.809000000000     0.451650000000     0          
O        O      0.250000000000     0.820500000000     0.125000000000     0          
O        O      0.317000000000     0.750000000000     0.125000000000     0          
T        Si     0.145700000000     0.901500000000     0.099150000000     0          
T        Si     0.055100000000     0.939900000000     0.054750000000     0          
T        Si     0.303000000000     0.806400000000     0.106000000000     0          
O        O      0.088700000000     0.592000000000     0.341200000000     0          
O        O      0.169900000000     0.597900000000     0.296800000000     0          
O        O      0.158700000000     0.652400000000     0.373950000000     0          
O        O      0.167100000000     0.550600000000     0.378500000000     0          
O        O      0.250000000000     0.500000000000     0.375000000000     0          
O        O      0.304700000000     0.500000000000     0.297300000000     0          
O        O      0.060300000000     0.500000000000     0.316850000000     0          
O        O      0.070800000000     0.570300000000     0.250000000000     0          
O        O      0.000000000000     0.577300000000     0.311950000000     0          
O        O      0.306800000000     0.691000000000     0.201650000000     0          
O        O      0.234500000000     0.651300000000     0.250000000000     0          
O        O      0.250000000000     0.750000000000     0.250000000000     0          
O        O      0.250000000000     0.679500000000     0.375000000000     0          
O        O      0.238600000000     0.550500000000     0.250000000000     0          
T        Si     0.145700000000     0.598500000000     0.349150000000     0          
T        Si     0.055100000000     0.560100000000     0.304750000000     0          
T        Si     0.303000000000     0.693600000000     0.356000000000     0          
T        Si     0.275500000000     0.694800000000     0.250000000000     0          
T        Si     0.203400000000     0.599400000000     0.250000000000     0          
T        Si     0.304200000000     0.500000000000     0.355050000000     0          
T        Si     0.271600000000     0.500000000000     0.250000000000     0          
O        O      0.911300000000     0.408000000000     0.341200000000     0          
O        O      0.830100000000     0.402100000000     0.296800000000     0          
O        O      0.841300000000     0.347600000000     0.373950000000     0          
O        O      0.832900000000     0.449400000000     0.378500000000     0          
O        O      0.750000000000     0.500000000000     0.375000000000     0          
O        O      0.695300000000     0.500000000000     0.297300000000     0          
O        O      0.939700000000     0.500000000000     0.316850000000     0          
O        O      0.929200000000     0.429700000000     0.250000000000     0          
O        O      0.000000000000     0.422700000000     0.311950000000     0          
O        O      0.693200000000     0.309000000000     0.201650000000     0          
O        O      0.765500000000     0.348700000000     0.250000000000     0          
O        O      0.750000000000     0.250000000000     0.250000000000     0          
O        O      0.750000000000     0.320500000000     0.375000000000     0          
O        O      0.761400000000     0.449500000000     0.250000000000     0          
T        Si     0.854300000000     0.401500000000     0.349150000000     0          
T        Si     0.944900000000     0.439900000000     0.304750000000     0          
T        Si     0.697000000000     0.306400000000     0.356000000000     0          
T        Si     0.724500000000     0.305200000000     0.250000000000     0          
T        Si     0.796600000000     0.400600000000     0.250000000000     0          
T        Si     0.695800000000     0.500000000000     0.355050000000     0          
T        Si     0.728400000000     0.500000000000     0.250000000000     0          
O        O      0.088700000000     0.408000000000     0.158800000000     0          
O        O      0.169900000000     0.402100000000     0.203200000000     0          
O        O      0.158700000000     0.347600000000     0.126050000000     0          
O        O      0.167100000000     0.449400000000     0.121500000000     0          
O        O      0.250000000000     0.500000000000     0.125000000000     0          
O        O      0.304700000000     0.500000000000     0.202700000000     0          
O        O      0.060300000000     0.500000000000     0.183150000000     0          
O        O      0.070800000000     0.429700000000     0.250000000000     0          
O        O      0.000000000000     0.422700000000     0.188050000000     0          
O        O      0.306800000000     0.309000000000     0.298350000000     0          
O        O      0.234500000000     0.348700000000     0.250000000000     0          
O        O      0.250000000000     0.250000000000     0.250000000000     0          
O        O      0.250000000000     0.320500000000     0.125000000000     0          
O        O      0.238600000000     0.449500000000     0.250000000000     0          
T        Si     0.145700000000     0.401500000000     0.150850000000     0          
T        Si     0.055100000000     0.439900000000     0.195250000000     0          
T        Si     0.303000000000     0.306400000000     0.144000000000     0          
T        Si     0.275500000000     0.305200000000     0.250000000000     0          
T        Si     0.203400000000     0.400600000000     0.250000000000     0          
T        Si     0.304200000000     0.500000000000     0.144950000000     0          
O        O      0.911300000000     0.592000000000     0.158800000000     0          
O        O      0.830100000000     0.597900000000     0.203200000000     0          
O        O      0.841300000000     0.652400000000     0.126050000000     0          
O        O      0.832900000000     0.550600000000     0.121500000000     0          
O        O      0.750000000000     0.500000000000     0.125000000000     0          
O        O      0.695300000000     0.500000000000     0.202700000000     0          
O        O      0.939700000000     0.500000000000     0.183150000000     0          
O        O      0.929200000000     0.570300000000     0.250000000000     0          
O        O      0.000000000000     0.577300000000     0.188050000000     0          
O        O      0.693200000000     0.691000000000     0.298350000000     0          
O        O      0.765500000000     0.651300000000     0.250000000000     0          
O        O      0.750000000000     0.750000000000     0.250000000000     0          
O        O      0.750000000000     0.679500000000     0.125000000000     0          
O        O      0.761400000000     0.550500000000     0.250000000000     0          
T        Si     0.854300000000     0.598500000000     0.150850000000     0          
T        Si     0.944900000000     0.560100000000     0.195250000000     0          
T        Si     0.697000000000     0.693600000000     0.144000000000     0          
T        Si     0.724500000000     0.694800000000     0.250000000000     0          
T        Si     0.796600000000     0.599400000000     0.250000000000     0          
T        Si     0.695800000000     0.500000000000     0.144950000000     0          
O        O      0.911300000000     0.408000000000     0.158800000000     0          
O        O      0.830100000000     0.402100000000     0.203200000000     0          
O        O      0.841300000000     0.347600000000     0.126050000000     0          
O        O      0.832900000000     0.449400000000     0.121500000000     0          
O        O      0.693200000000     0.309000000000     0.298350000000     0          
O        O      0.750000000000     0.320500000000     0.125000000000     0          
T        Si     0.854300000000     0.401500000000     0.150850000000     0          
T        Si     0.944900000000     0.439900000000     0.195250000000     0          
T        Si     0.697000000000     0.306400000000     0.144000000000     0          
O        O      0.088700000000     0.592000000000     0.158800000000     0          
O        O      0.169900000000     0.597900000000     0.203200000000     0          
O        O      0.158700000000     0.652400000000     0.126050000000     0          
O        O      0.167100000000     0.550600000000     0.121500000000     0          
O        O      0.306800000000     0.691000000000     0.298350000000     0          
O        O      0.250000000000     0.679500000000     0.125000000000     0          
T        Si     0.145700000000     0.598500000000     0.150850000000     0          
T        Si     0.055100000000     0.560100000000     0.195250000000     0          
T        Si     0.303000000000     0.693600000000     0.144000000000     0          
O        O      0.911300000000     0.592000000000     0.341200000000     0          
O        O      0.830100000000     0.597900000000     0.296800000000     0          
O        O      0.841300000000     0.652400000000     0.373950000000     0          
O        O      0.832900000000     0.550600000000     0.378500000000     0          
O        O      0.693200000000     0.691000000000     0.201650000000     0          
O        O      0.750000000000     0.679500000000     0.375000000000     0          
T        Si     0.854300000000     0.598500000000     0.349150000000     0          
T        Si     0.944900000000     0.560100000000     0.304750000000     0          
T        Si     0.697000000000     0.693600000000     0.356000000000     0          
O        O      0.088700000000     0.408000000000     0.341200000000     0          
O        O      0.169900000000     0.402100000000     0.296800000000     0          
O        O      0.158700000000     0.347600000000     0.373950000000     0          
O        O      0.167100000000     0.449400000000     0.378500000000     0          
O        O      0.306800000000     0.309000000000     0.201650000000     0          
O        O      0.250000000000     0.320500000000     0.375000000000     0          
T        Si     0.145700000000     0.401500000000     0.349150000000     0          
T        Si     0.055100000000     0.439900000000     0.304750000000     0          
T        Si     0.303000000000     0.306400000000     0.356000000000     0          
O        O      0.588700000000     0.092000000000     0.341200000000     0          
O        O      0.669900000000     0.097900000000     0.296800000000     0          
O        O      0.658700000000     0.152400000000     0.373950000000     0          
O        O      0.667100000000     0.050600000000     0.378500000000     0          
O        O      0.804700000000     0.000000000000     0.297300000000     0          
O        O      0.560300000000     0.000000000000     0.316850000000     0          
O        O      0.570800000000     0.070300000000     0.250000000000     0          
O        O      0.500000000000     0.077300000000     0.311950000000     0          
O        O      0.806800000000     0.191000000000     0.201650000000     0          
O        O      0.734500000000     0.151300000000     0.250000000000     0          
O        O      0.817000000000     0.250000000000     0.375000000000     0          
O        O      0.738600000000     0.050500000000     0.250000000000     0          
T        Si     0.645700000000     0.098500000000     0.349150000000     0          
T        Si     0.555100000000     0.060100000000     0.304750000000     0          
T        Si     0.803000000000     0.193600000000     0.356000000000     0          
T        Si     0.775500000000     0.194800000000     0.250000000000     0          
T        Si     0.703400000000     0.099400000000     0.250000000000     0          
T        Si     0.804200000000     0.000000000000     0.355050000000     0          
T        Si     0.771600000000     0.000000000000     0.250000000000     0          
O        O      0.411300000000     0.908000000000     0.341200000000     0          
O        O      0.330100000000     0.902100000000     0.296800000000     0          
O        O      0.341300000000     0.847600000000     0.373950000000     0          
O        O      0.332900000000     0.949400000000     0.378500000000     0          
O        O      0.195300000000     0.000000000000     0.297300000000     0          
O        O      0.439700000000     0.000000000000     0.316850000000     0          
O        O      0.429200000000     0.929700000000     0.250000000000     0          
O        O      0.500000000000     0.922700000000     0.311950000000     0          
O        O      0.193200000000     0.809000000000     0.201650000000     0          
O        O      0.265500000000     0.848700000000     0.250000000000     0          
O        O      0.183000000000     0.750000000000     0.375000000000     0          
O        O      0.261400000000     0.949500000000     0.250000000000     0          
T        Si     0.354300000000     0.901500000000     0.349150000000     0          
T        Si     0.444900000000     0.939900000000     0.304750000000     0          
T        Si     0.197000000000     0.806400000000     0.356000000000     0          
T        Si     0.224500000000     0.805200000000     0.250000000000     0          
T        Si     0.296600000000     0.900600000000     0.250000000000     0          
T        Si     0.195800000000     0.000000000000     0.355050000000     0          
T        Si     0.228400000000     0.000000000000     0.250000000000     0          
O        O      0.588700000000     0.908000000000     0.158800000000     0          
O        O      0.669900000000     0.902100000000     0.203200000000     0          
O        O      0.658700000000     0.847600000000     0.126050000000     0          
O        O      0.667100000000     0.949400000000     0.121500000000     0          
O        O      0.804700000000     0.000000000000     0.202700000000     0          
O        O      0.560300000000     0.000000000000     0.183150000000     0          
O        O      0.570800000000     0.929700000000     0.250000000000     0          
O        O      0.500000000000     0.922700000000     0.188050000000     0          
O        O      0.806800000000     0.809000000000     0.298350000000     0          
O        O      0.734500000000     0.848700000000     0.250000000000     0          
O        O      0.817000000000     0.750000000000     0.125000000000     0          
O        O      0.738600000000     0.949500000000     0.250000000000     0          
T        Si     0.645700000000     0.901500000000     0.150850000000     0          
T        Si     0.555100000000     0.939900000000     0.195250000000     0          
T        Si     0.803000000000     0.806400000000     0.144000000000     0          
T        Si     0.775500000000     0.805200000000     0.250000000000     0          
T        Si     0.703400000000     0.900600000000     0.250000000000     0          
T        Si     0.804200000000     0.000000000000     0.144950000000     0          
O        O      0.411300000000     0.092000000000     0.158800000000     0          
O        O      0.330100000000     0.097900000000     0.203200000000     0          
O        O      0.341300000000     0.152400000000     0.126050000000     0          
O        O      0.332900000000     0.050600000000     0.121500000000     0          
O        O      0.195300000000     0.000000000000     0.202700000000     0          
O        O      0.439700000000     0.000000000000     0.183150000000     0          
O        O      0.429200000000     0.070300000000     0.250000000000     0          
O        O      0.500000000000     0.077300000000     0.188050000000     0          
O        O      0.193200000000     0.191000000000     0.298350000000     0          
O        O      0.265500000000     0.151300000000     0.250000000000     0          
O        O      0.183000000000     0.250000000000     0.125000000000     0          
O        O      0.261400000000     0.050500000000     0.250000000000     0          
T        Si     0.354300000000     0.098500000000     0.150850000000     0          
T        Si     0.444900000000     0.060100000000     0.195250000000     0          
T        Si     0.197000000000     0.193600000000     0.144000000000     0          
T        Si     0.224500000000     0.194800000000     0.250000000000     0          
T        Si     0.296600000000     0.099400000000     0.250000000000     0          
T        Si     0.195800000000     0.000000000000     0.144950000000     0          
O        O      0.411300000000     0.908000000000     0.158800000000     0          
O        O      0.330100000000     0.902100000000     0.203200000000     0          
O        O      0.341300000000     0.847600000000     0.126050000000     0          
O        O      0.332900000000     0.949400000000     0.121500000000     0          
O        O      0.193200000000     0.809000000000     0.298350000000     0          
O        O      0.183000000000     0.750000000000     0.125000000000     0          
T        Si     0.354300000000     0.901500000000     0.150850000000     0          
T        Si     0.444900000000     0.939900000000     0.195250000000     0          
T        Si     0.197000000000     0.806400000000     0.144000000000     0          
O        O      0.588700000000     0.092000000000     0.158800000000     0          
O        O      0.669900000000     0.097900000000     0.203200000000     0          
O        O      0.658700000000     0.152400000000     0.126050000000     0          
O        O      0.667100000000     0.050600000000     0.121500000000     0          
O        O      0.806800000000     0.191000000000     0.298350000000     0          
O        O      0.817000000000     0.250000000000     0.125000000000     0          
T        Si     0.645700000000     0.098500000000     0.150850000000     0          
T        Si     0.555100000000     0.060100000000     0.195250000000     0          
T        Si     0.803000000000     0.193600000000     0.144000000000     0          
O        O      0.411300000000     0.092000000000     0.341200000000     0          
O        O      0.330100000000     0.097900000000     0.296800000000     0          
O        O      0.341300000000     0.152400000000     0.373950000000     0          
O        O      0.332900000000     0.050600000000     0.378500000000     0          
O        O      0.193200000000     0.191000000000     0.201650000000     0          
O        O      0.183000000000     0.250000000000     0.375000000000     0          
T        Si     0.354300000000     0.098500000000     0.349150000000     0          
T        Si     0.444900000000     0.060100000000     0.304750000000     0          
T        Si     0.197000000000     0.193600000000     0.356000000000     0          
O        O      0.588700000000     0.908000000000     0.341200000000     0          
O        O      0.669900000000     0.902100000000     0.296800000000     0          
O        O      0.658700000000     0.847600000000     0.373950000000     0          
O        O      0.667100000000     0.949400000000     0.378500000000     0          
O        O      0.806800000000     0.809000000000     0.201650000000     0          
O        O      0.817000000000     0.750000000000     0.375000000000     0          
T        Si     0.645700000000     0.901500000000     0.349150000000     0          
T        Si     0.555100000000     0.939900000000     0.304750000000     0          
T        Si     0.803000000000     0.806400000000     0.356000000000     0          
O        O      0.588700000000     0.592000000000     0.091200000000     0          
O        O      0.669900000000     0.597900000000     0.046800000000     0          
O        O      0.658700000000     0.652400000000     0.123950000000     0          
O        O      0.667100000000     0.550600000000     0.128500000000     0          
O        O      0.804700000000     0.500000000000     0.047300000000     0          
O        O      0.560300000000     0.500000000000     0.066850000000     0          
O        O      0.570800000000     0.570300000000     0.000000000000     0          
O        O      0.500000000000     0.577300000000     0.061950000000     0          
O        O      0.806800000000     0.691000000000     0.451650000000     0          
O        O      0.734500000000     0.651300000000     0.000000000000     0          
O        O      0.738600000000     0.550500000000     0.000000000000     0          
T        Si     0.645700000000     0.598500000000     0.099150000000     0          
T        Si     0.555100000000     0.560100000000     0.054750000000     0          
T        Si     0.803000000000     0.693600000000     0.106000000000     0          
T        Si     0.775500000000     0.694800000000     0.000000000000     0          
T        Si     0.703400000000     0.599400000000     0.000000000000     0          
T        Si     0.804200000000     0.500000000000     0.105050000000     0          
T        Si     0.771600000000     0.500000000000     0.000000000000     0          
O        O      0.411300000000     0.408000000000     0.091200000000     0          
O        O      0.330100000000     0.402100000000     0.046800000000     0          
O        O      0.341300000000     0.347600000000     0.123950000000     0          
O        O      0.332900000000     0.449400000000     0.128500000000     0          
O        O      0.195300000000     0.500000000000     0.047300000000     0          
O        O      0.439700000000     0.500000000000     0.066850000000     0          
O        O      0.429200000000     0.429700000000     0.000000000000     0          
O        O      0.500000000000     0.422700000000     0.061950000000     0          
O        O      0.193200000000     0.309000000000     0.451650000000     0          
O        O      0.265500000000     0.348700000000     0.000000000000     0          
O        O      0.261400000000     0.449500000000     0.000000000000     0          
T        Si     0.354300000000     0.401500000000     0.099150000000     0          
T        Si     0.444900000000     0.439900000000     0.054750000000     0          
T        Si     0.197000000000     0.306400000000     0.106000000000     0          
T        Si     0.224500000000     0.305200000000     0.000000000000     0          
T        Si     0.296600000000     0.400600000000     0.000000000000     0          
T        Si     0.195800000000     0.500000000000     0.105050000000     0          
T        Si     0.228400000000     0.500000000000     0.000000000000     0          
O        O      0.588700000000     0.408000000000     0.408800000000     0          
O        O      0.669900000000     0.402100000000     0.453200000000     0          
O        O      0.658700000000     0.347600000000     0.376050000000     0          
O        O      0.667100000000     0.449400000000     0.371500000000     0          
O        O      0.804700000000     0.500000000000     0.452700000000     0          
O        O      0.560300000000     0.500000000000     0.433150000000     0          
O        O      0.570800000000     0.429700000000     0.000000000000     0          
O        O      0.500000000000     0.422700000000     0.438050000000     0          
O        O      0.806800000000     0.309000000000     0.048350000000     0          
O        O      0.734500000000     0.348700000000     0.000000000000     0          
O        O      0.738600000000     0.449500000000     0.000000000000     0          
T        Si     0.645700000000     0.401500000000     0.400850000000     0          
T        Si     0.555100000000     0.439900000000     0.445250000000     0          
T        Si     0.803000000000     0.306400000000     0.394000000000     0          
T        Si     0.775500000000     0.305200000000     0.000000000000     0          
T        Si     0.703400000000     0.400600000000     0.000000000000     0          
T        Si     0.804200000000     0.500000000000     0.394950000000     0          
O        O      0.411300000000     0.592000000000     0.408800000000     0          
O        O      0.330100000000     0.597900000000     0.453200000000     0          
O        O      0.341300000000     0.652400000000     0.376050000000     0          
O        O      0.332900000000     0.550600000000     0.371500000000     0          
O        O      0.195300000000     0.500000000000     0.452700000000     0          
O        O      0.439700000000     0.500000000000     0.433150000000     0          
O        O      0.429200000000     0.570300000000     0.000000000000     0          
O        O      0.500000000000     0.577300000000     0.438050000000     0          
O        O      0.193200000000     0.691000000000     0.048350000000     0          
O        O      0.265500000000     0.651300000000     0.000000000000     0          
O        O      0.261400000000     0.550500000000     0.000000000000     0          
T        Si     0.354300000000     0.598500000000     0.400850000000     0          
T        Si     0.444900000000     0.560100000000     0.445250000000     0          
T        Si     0.197000000000     0.693600000000     0.394000000000     0          
T        Si     0.224500000000     0.694800000000     0.000000000000     0          
T        Si     0.296600000000     0.599400000000     0.000000000000     0          
T        Si     0.195800000000     0.500000000000     0.394950000000     0          
O        O      0.411300000000     0.408000000000     0.408800000000     0          
O        O      0.330100000000     0.402100000000     0.453200000000     0          
O        O      0.341300000000     0.347600000000     0.376050000000     0          
O        O      0.332900000000     0.449400000000     0.371500000000     0          
O        O      0.193200000000     0.309000000000     0.048350000000     0          
T        Si     0.354300000000     0.401500000000     0.400850000000     0          
T        Si     0.444900000000     0.439900000000     0.445250000000     0          
T        Si     0.197000000000     0.306400000000     0.394000000000     0          
O        O      0.588700000000     0.592000000000     0.408800000000     0          
O        O      0.669900000000     0.597900000000     0.453200000000     0          
O        O      0.658700000000     0.652400000000     0.376050000000     0          
O        O      0.667100000000     0.550600000000     0.371500000000     0          
O        O      0.806800000000     0.691000000000     0.048350000000     0          
T        Si     0.645700000000     0.598500000000     0.400850000000     0          
T        Si     0.555100000000     0.560100000000     0.445250000000     0          
T        Si     0.803000000000     0.693600000000     0.394000000000     0          
O        O      0.411300000000     0.592000000000     0.091200000000     0          
O        O      0.330100000000     0.597900000000     0.046800000000     0          
O        O      0.341300000000     0.652400000000     0.123950000000     0          
O        O      0.332900000000     0.550600000000     0.128500000000     0          
O        O      0.193200000000     0.691000000000     0.451650000000     0          
T        Si     0.354300000000     0.598500000000     0.099150000000     0          
T        Si     0.444900000000     0.560100000000     0.054750000000     0          
T        Si     0.197000000000     0.693600000000     0.106000000000     0          
O        O      0.588700000000     0.408000000000     0.091200000000     0          
O        O      0.669900000000     0.402100000000     0.046800000000     0          
O        O      0.658700000000     0.347600000000     0.123950000000     0          
O        O      0.667100000000     0.449400000000     0.128500000000     0          
O        O      0.806800000000     0.309000000000     0.451650000000     0          
T        Si     0.645700000000     0.401500000000     0.099150000000     0          
T        Si     0.555100000000     0.439900000000     0.054750000000     0          
T        Si     0.803000000000     0.306400000000     0.106000000000     0          
O        O      0.088700000000     0.092000000000     0.591200000000     0          
O        O      0.169900000000     0.097900000000     0.546800000000     0          
O        O      0.158700000000     0.152400000000     0.623950000000     0          
O        O      0.167100000000     0.050600000000     0.628500000000     0          
O        O      0.250000000000     0.000000000000     0.625000000000     0          
O        O      0.304700000000     0.000000000000     0.547300000000     0          
O        O      0.060300000000     0.000000000000     0.566850000000     0          
O        O      0.070800000000     0.070300000000     0.500000000000     0          
O        O      0.000000000000     0.077300000000     0.561950000000     0          
O        O      0.306800000000     0.191000000000     0.951650000000     0          
O        O      0.234500000000     0.151300000000     0.500000000000     0          
O        O      0.250000000000     0.250000000000     0.500000000000     0          
O        O      0.250000000000     0.179500000000     0.625000000000     0          
O        O      0.317000000000     0.250000000000     0.625000000000     0          
O        O      0.238600000000     0.050500000000     0.500000000000     0          
T        Si     0.145700000000     0.098500000000     0.599150000000     0          
T        Si     0.055100000000     0.060100000000     0.554750000000     0          
T        Si     0.303000000000     0.193600000000     0.606000000000     0          
T        Si     0.275500000000     0.194800000000     0.500000000000     0          
T        Si     0.203400000000     0.099400000000     0.500000000000     0          
T        Si     0.304200000000     0.000000000000     0.605050000000     0          
T        Si     0.271600000000     0.000000000000     0.500000000000     0          
O        O      0.911300000000     0.908000000000     0.591200000000     0          
O        O      0.830100000000     0.902100000000     0.546800000000     0          
O        O      0.841300000000     0.847600000000     0.623950000000     0          
O        O      0.832900000000     0.949400000000     0.628500000000     0          
O        O      0.750000000000     0.000000000000     0.625000000000     0          
O        O      0.695300000000     0.000000000000     0.547300000000     0          
O        O      0.939700000000     0.000000000000     0.566850000000     0          
O        O      0.929200000000     0.929700000000     0.500000000000     0          
O        O      0.000000000000     0.922700000000     0.561950000000     0          
O        O      0.693200000000     0.809000000000     0.951650000000     0          
O        O      0.765500000000     0.848700000000     0.500000000000     0          
O        O      0.750000000000     0.750000000000     0.500000000000     0          
O        O      0.750000000000     0.820500000000     0.625000000000     0          
O        O      0.683000000000     0.750000000000     0.625000000000     0          
O        O      0.761400000000     0.949500000000     0.500000000000     0          
T        Si     0.854300000000     0.901500000000     0.599150000000     0          
T        Si     0.944900000000     0.939900000000     0.554750000000     0          
T        Si     0.697000000000     0.806400000000     0.606000000000     0          
T        Si     0.724500000000     0.805200000000     0.500000000000     0          
T        Si     0.796600000000     0.900600000000     0.500000000000     0          
T        Si     0.695800000000     0.000000000000     0.605050000000     0          
T        Si     0.728400000000     0.000000000000     0.500000000000     0          
O        O      0.088700000000     0.908000000000     0.908800000000     0          
O        O      0.169900000000     0.902100000000     0.953200000000     0          
O        O      0.158700000000     0.847600000000     0.876050000000     0          
O        O      0.167100000000     0.949400000000     0.871500000000     0          
O        O      0.250000000000     0.000000000000     0.875000000000     0          
O        O      0.304700000000     0.000000000000     0.952700000000     0          
O        O      0.060300000000     0.000000000000     0.933150000000     0          
O        O      0.070800000000     0.929700000000     0.500000000000     0          
O        O      0.000000000000     0.922700000000     0.938050000000     0          
O        O      0.306800000000     0.809000000000     0.548350000000     0          
O        O      0.234500000000     0.848700000000     0.500000000000     0          
O        O      0.250000000000     0.750000000000     0.500000000000     0          
O        O      0.250000000000     0.820500000000     0.875000000000     0          
O        O      0.317000000000     0.750000000000     0.875000000000     0          
O        O      0.238600000000     0.949500000000     0.500000000000     0          
T        Si     0.145700000000     0.901500000000     0.900850000000     0          
T        Si     0.055100000000     0.939900000000     0.945250000000     0          
T        Si     0.303000000000     0.806400000000     0.894000000000     0          
T        Si     0.275500000000     0.805200000000     0.500000000000     0          
T        Si     0.203400000000     0.900600000000     0.500000000000     0          
T        Si     0.304200000000     0.000000000000     0.894950000000     0          
O        O      0.911300000000     0.092000000000     0.908800000000     0          
O        O      0.830100000000     0.097900000000     0.953200000000     0          
O        O      0.841300000000     0.152400000000     0.876050000000     0          
O        O      0.832900000000     0.050600000000     0.871500000000     0          
O        O      0.750000000000     0.000000000000     0.875000000000     0          
O        O      0.695300000000     0.000000000000     0.952700000000     0          
O        O      0.939700000000     0.000000000000     0.933150000000     0          
O        O      0.929200000000     0.070300000000     0.500000000000     0          
O        O      0.000000000000     0.077300000000     0.938050000000     0          
O        O      0.693200000000     0.191000000000     0.548350000000     0          
O        O      0.765500000000     0.151300000000     0.500000000000     0          
O        O      0.750000000000     0.250000000000     0.500000000000     0          
O        O      0.750000000000     0.179500000000     0.875000000000     0          
O        O      0.683000000000     0.250000000000     0.875000000000     0          
O        O      0.761400000000     0.050500000000     0.500000000000     0          
T        Si     0.854300000000     0.098500000000     0.900850000000     0          
T        Si     0.944900000000     0.060100000000     0.945250000000     0          
T        Si     0.697000000000     0.193600000000     0.894000000000     0          
T        Si     0.724500000000     0.194800000000     0.500000000000     0          
T        Si     0.796600000000     0.099400000000     0.500000000000     0          
T        Si     0.695800000000     0.000000000000     0.894950000000     0          
O        O      0.911300000000     0.908000000000     0.908800000000     0          
O        O      0.830100000000     0.902100000000     0.953200000000     0          
O        O      0.841300000000     0.847600000000     0.876050000000     0          
O        O      0.832900000000     0.949400000000     0.871500000000     0          
O        O      0.693200000000     0.809000000000     0.548350000000     0          
O        O      0.750000000000     0.820500000000     0.875000000000     0          
O        O      0.683000000000     0.750000000000     0.875000000000     0          
T        Si     0.854300000000     0.901500000000     0.900850000000     0          
T        Si     0.944900000000     0.939900000000     0.945250000000     0          
T        Si     0.697000000000     0.806400000000     0.894000000000     0          
O        O      0.088700000000     0.092000000000     0.908800000000     0          
O        O      0.169900000000     0.097900000000     0.953200000000     0          
O        O      0.158700000000     0.152400000000     0.876050000000     0          
O        O      0.167100000000     0.050600000000     0.871500000000     0          
O        O      0.306800000000     0.191000000000     0.548350000000     0          
O        O      0.250000000000     0.179500000000     0.875000000000     0          
O        O      0.317000000000     0.250000000000     0.875000000000     0          
T        Si     0.145700000000     0.098500000000     0.900850000000     0          
T        Si     0.055100000000     0.060100000000     0.945250000000     0          
T        Si     0.303000000000     0.193600000000     0.894000000000     0          
O        O      0.911300000000     0.092000000000     0.591200000000     0          
O        O      0.830100000000     0.097900000000     0.546800000000     0          
O        O      0.841300000000     0.152400000000     0.623950000000     0          
O        O      0.832900000000     0.050600000000     0.628500000000     0          
O        O      0.693200000000     0.191000000000     0.951650000000     0          
O        O      0.750000000000     0.179500000000     0.625000000000     0          
O        O      0.683000000000     0.250000000000     0.625000000000     0          
T        Si     0.854300000000     0.098500000000     0.599150000000     0          
T        Si     0.944900000000     0.060100000000     0.554750000000     0          
T        Si     0.697000000000     0.193600000000     0.606000000000     0          
O        O      0.088700000000     0.908000000000     0.591200000000     0          
O        O      0.169900000000     0.902100000000     0.546800000000     0          
O        O      0.158700000000     0.847600000000     0.623950000000     0          
O        O      0.167100000000     0.949400000000     0.628500000000     0          
O        O      0.306800000000     0.809000000000     0.951650000000     0          
O        O      0.250000000000     0.820500000000     0.625000000000     0          
O        O      0.317000000000     0.750000000000     0.625000000000     0          
T        Si     0.145700000000     0.901500000000     0.599150000000     0          
T        Si     0.055100000000     0.939900000000     0.554750000000     0          
T        Si     0.303000000000     0.806400000000     0.606000000000     0          
O        O      0.088700000000     0.592000000000     0.841200000000     0          
O        O      0.169900000000     0.597900000000     0.796800000000     0          
O        O      0.158700000000     0.652400000000     0.873950000000     0          
O        O      0.167100000000     0.550600000000     0.878500000000     0          
O        O      0.250000000000     0.500000000000     0.875000000000     0          
O        O      0.304700000000     0.500000000000     0.797300000000     0          
O        O      0.060300000000     0.500000000000     0.816850000000     0          
O        O      0.070800000000     0.570300000000     0.750000000000     0          
O        O      0.000000000000     0.577300000000     0.811950000000     0          
O        O      0.306800000000     0.691000000000     0.701650000000     0          
O        O      0.234500000000     0.651300000000     0.750000000000     0          
O        O      0.250000000000     0.750000000000     0.750000000000     0          
O        O      0.250000000000     0.679500000000     0.875000000000     0          
O        O      0.238600000000     0.550500000000     0.750000000000     0          
T        Si     0.145700000000     0.598500000000     0.849150000000     0          
T        Si     0.055100000000     0.560100000000     0.804750000000     0          
T        Si     0.303000000000     0.693600000000     0.856000000000     0          
T        Si     0.275500000000     0.694800000000     0.750000000000     0          
T        Si     0.203400000000     0.599400000000     0.750000000000     0          
T        Si     0.304200000000     0.500000000000     0.855050000000     0          
T        Si     0.271600000000     0.500000000000     0.750000000000     0          
O        O      0.911300000000     0.408000000000     0.841200000000     0          
O        O      0.830100000000     0.402100000000     0.796800000000     0          
O        O      0.841300000000     0.347600000000     0.873950000000     0          
O        O      0.832900000000     0.449400000000     0.878500000000     0          
O        O      0.750000000000     0.500000000000     0.875000000000     0          
O        O      0.695300000000     0.500000000000     0.797300000000     0          
O        O      0.939700000000     0.500000000000     0.816850000000     0          
O        O      0.929200000000     0.429700000000     0.750000000000     0          
O        O      0.000000000000     0.422700000000     0.811950000000     0          
O        O      0.693200000000     0.309000000000     0.701650000000     0          
O        O      0.765500000000     0.348700000000     0.750000000000     0          
O        O      0.750000000000     0.250000000000     0.750000000000     0          
O        O      0.750000000000     0.320500000000     0.875000000000     0          
O        O      0.761400000000     0.449500000000     0.750000000000     0          
T        Si     0.854300000000     0.401500000000     0.849150000000     0          
T        Si     0.944900000000     0.439900000000     0.804750000000     0          
T        Si     0.697000000000     0.306400000000     0.856000000000     0          
T        Si     0.724500000000     0.305200000000     0.750000000000     0          
T        Si     0.796600000000     0.400600000000     0.750000000000     0          
T        Si     0.695800000000     0.500000000000     0.855050000000     0          
T        Si     0.728400000000     0.500000000000     0.750000000000     0          
O        O      0.088700000000     0.408000000000     0.658800000000     0          
O        O      0.169900000000     0.402100000000     0.703200000000     0          
O        O      0.158700000000     0.347600000000     0.626050000000     0          
O        O      0.167100000000     0.449400000000     0.621500000000     0          
O        O      0.250000000000     0.500000000000     0.625000000000     0          
O        O      0.304700000000     0.500000000000     0.702700000000     0          
O        O      0.060300000000     0.500000000000     0.683150000000     0          
O        O      0.070800000000     0.429700000000     0.750000000000     0          
O        O      0.000000000000     0.422700000000     0.688050000000     0          
O        O      0.306800000000     0.309000000000     0.798350000000     0          
O        O      0.234500000000     0.348700000000     0.750000000000     0          
O        O      0.250000000000     0.250000000000     0.750000000000     0          
O        O      0.250000000000     0.320500000000     0.625000000000     0          
O        O      0.238600000000     0.449500000000     0.750000000000     0          
T        Si     0.145700000000     0.401500000000     0.650850000000     0          
T        Si     0.055100000000     0.439900000000     0.695250000000     0          
T        Si     0.303000000000     0.306400000000     0.644000000000     0          
T        Si     0.275500000000     0.305200000000     0.750000000000     0          
T        Si     0.203400000000     0.400600000000     0.750000000000     0          
T        Si     0.304200000000     0.500000000000     0.644950000000     0          
O        O      0.911300000000     0.592000000000     0.658800000000     0          
O        O      0.830100000000     0.597900000000     0.703200000000     0          
O        O      0.841300000000     0.652400000000     0.626050000000     0          
O        O      0.832900000000     0.550600000000     0.621500000000     0          
O        O      0.750000000000     0.500000000000     0.625000000000     0          
O        O      0.695300000000     0.500000000000     0.702700000000     0          
O        O      0.939700000000     0.500000000000     0.683150000000     0          
O        O      0.929200000000     0.570300000000     0.750000000000     0          
O        O      0.000000000000     0.577300000000     0.688050000000     0          
O        O      0.693200000000     0.691000000000     0.798350000000     0          
O        O      0.765500000000     0.651300000000     0.750000000000     0          
O        O      0.750000000000     0.750000000000     0.750000000000     0          
O        O      0.750000000000     0.679500000000     0.625000000000     0          
O        O      0.761400000000     0.550500000000     0.750000000000     0          
T        Si     0.854300000000     0.598500000000     0.650850000000     0          
T        Si     0.944900000000     0.560100000000     0.695250000000     0          
T        Si     0.697000000000     0.693600000000     0.644000000000     0          
T        Si     0.724500000000     0.694800000000     0.750000000000     0          
T        Si     0.796600000000     0.599400000000     0.750000000000     0          
T        Si     0.695800000000     0.500000000000     0.644950000000     0          
O        O      0.911300000000     0.408000000000     0.658800000000     0          
O        O      0.830100000000     0.402100000000     0.703200000000     0          
O        O      0.841300000000     0.347600000000     0.626050000000     0          
O        O      0.832900000000     0.449400000000     0.621500000000     0          
O        O      0.693200000000     0.309000000000     0.798350000000     0          
O        O      0.750000000000     0.320500000000     0.625000000000     0          
T        Si     0.854300000000     0.401500000000     0.650850000000     0          
T        Si     0.944900000000     0.439900000000     0.695250000000     0          
T        Si     0.697000000000     0.306400000000     0.644000000000     0          
O        O      0.088700000000     0.592000000000     0.658800000000     0          
O        O      0.169900000000     0.597900000000     0.703200000000     0          
O        O      0.158700000000     0.652400000000     0.626050000000     0          
O        O      0.167100000000     0.550600000000     0.621500000000     0          
O        O      0.306800000000     0.691000000000     0.798350000000     0          
O        O      0.250000000000     0.679500000000     0.625000000000     0          
T        Si     0.145700000000     0.598500000000     0.650850000000     0          
T        Si     0.055100000000     0.560100000000     0.695250000000     0          
T        Si     0.303000000000     0.693600000000     0.644000000000     0          
O        O      0.911300000000     0.592000000000     0.841200000000     0          
O        O      0.830100000000     0.597900000000     0.796800000000     0          
O        O      0.841300000000     0.652400000000     0.873950000000     0          
O        O      0.832900000000     0.550600000000     0.878500000000     0          
O        O      0.693200000000     0.691000000000     0.701650000000     0          
O        O      0.750000000000     0.679500000000     0.875000000000     0          
T        Si     0.854300000000     0.598500000000     0.849150000000     0          
T        Si     0.944900000000     0.560100000000     0.804750000000     0          
T        Si     0.697000000000     0.693600000000     0.856000000000     0          
O        O      0.088700000000     0.408000000000     0.841200000000     0          
O        O      0.169900000000     0.402100000000     0.796800000000     0          
O        O      0.158700000000     0.347600000000     0.873950000000     0          
O        O      0.167100000000     0.449400000000     0.878500000000     0          
O        O      0.306800000000     0.309000000000     0.701650000000     0          
O        O      0.250000000000     0.320500000000     0.875000000000     0          
T        Si     0.145700000000     0.401500000000     0.849150000000     0          
T        Si     0.055100000000     0.439900000000     0.804750000000     0          
T        Si     0.303000000000     0.306400000000     0.856000000000     0          
O        O      0.588700000000     0.092000000000     0.841200000000     0          
O        O      0.669900000000     0.097900000000     0.796800000000     0          
O        O      0.658700000000     0.152400000000     0.873950000000     0          
O        O      0.667100000000     0.050600000000     0.878500000000     0          
O        O      0.804700000000     0.000000000000     0.797300000000     0          
O        O      0.560300000000     0.000000000000     0.816850000000     0          
O        O      0.570800000000     0.070300000000     0.750000000000     0          
O        O      0.500000000000     0.077300000000     0.811950000000     0          
O        O      0.806800000000     0.191000000000     0.701650000000     0          
O        O      0.734500000000     0.151300000000     0.750000000000     0          
O        O      0.817000000000     0.250000000000     0.875000000000     0          
O        O      0.738600000000     0.050500000000     0.750000000000     0          
T        Si     0.645700000000     0.098500000000     0.849150000000     0          
T        Si     0.555100000000     0.060100000000     0.804750000000     0          
T        Si     0.803000000000     0.193600000000     0.856000000000     0          
T        Si     0.775500000000     0.194800000000     0.750000000000     0          
T        Si     0.703400000000     0.099400000000     0.750000000000     0          
T        Si     0.804200000000     0.000000000000     0.855050000000     0          
T        Si     0.771600000000     0.000000000000     0.750000000000     0          
O        O      0.411300000000     0.908000000000     0.841200000000     0          
O        O      0.330100000000     0.902100000000     0.796800000000     0          
O        O      0.341300000000     0.847600000000     0.873950000000     0          
O        O      0.332900000000     0.949400000000     0.878500000000     0          
O        O      0.195300000000     0.000000000000     0.797300000000     0          
O        O      0.439700000000     0.000000000000     0.816850000000     0          
O        O      0.429200000000     0.929700000000     0.750000000000     0          
O        O      0.500000000000     0.922700000000     0.811950000000     0          
O        O      0.193200000000     0.809000000000     0.701650000000     0          
O        O      0.265500000000     0.848700000000     0.750000000000     0          
O        O      0.183000000000     0.750000000000     0.875000000000     0          
O        O      0.261400000000     0.949500000000     0.750000000000     0          
T        Si     0.354300000000     0.901500000000     0.849150000000     0          
T        Si     0.444900000000     0.939900000000     0.804750000000     0          
T        Si     0.197000000000     0.806400000000     0.856000000000     0          
T        Si     0.224500000000     0.805200000000     0.750000000000     0          
T        Si     0.296600000000     0.900600000000     0.750000000000     0          
T        Si     0.195800000000     0.000000000000     0.855050000000     0          
T        Si     0.228400000000     0.000000000000     0.750000000000     0          
O        O      0.588700000000     0.908000000000     0.658800000000     0          
O        O      0.669900000000     0.902100000000     0.703200000000     0          
O        O      0.658700000000     0.847600000000     0.626050000000     0          
O        O      0.667100000000     0.949400000000     0.621500000000     0          
O        O      0.804700000000     0.000000000000     0.702700000000     0          
O        O      0.560300000000     0.000000000000     0.683150000000     0          
O        O      0.570800000000     0.929700000000     0.750000000000     0          
O        O      0.500000000000     0.922700000000     0.688050000000     0          
O        O      0.806800000000     0.809000000000     0.798350000000     0          
O        O      0.734500000000     0.848700000000     0.750000000000     0          
O        O      0.817000000000     0.750000000000     0.625000000000     0          
O        O      0.738600000000     0.949500000000     0.750000000000     0          
T        Si     0.645700000000     0.901500000000     0.650850000000     0          
T        Si     0.555100000000     0.939900000000     0.695250000000     0          
T        Si     0.803000000000     0.806400000000     0.644000000000     0          
T        Si     0.775500000000     0.805200000000     0.750000000000     0          
T        Si     0.703400000000     0.900600000000     0.750000000000     0          
T        Si     0.804200000000     0.000000000000     0.644950000000     0          
O        O      0.411300000000     0.092000000000     0.658800000000     0          
O        O      0.330100000000     0.097900000000     0.703200000000     0          
O        O      0.341300000000     0.152400000000     0.626050000000     0          
O        O      0.332900000000     0.050600000000     0.621500000000     0          
O        O      0.195300000000     0.000000000000     0.702700000000     0          
O        O      0.439700000000     0.000000000000     0.683150000000     0          
O        O      0.429200000000     0.070300000000     0.750000000000     0          
O        O      0.500000000000     0.077300000000     0.688050000000     0          
O        O      0.193200000000     0.191000000000     0.798350000000     0          
O        O      0.265500000000     0.151300000000     0.750000000000     0          
O        O      0.183000000000     0.250000000000     0.625000000000     0          
O        O      0.261400000000     0.050500000000     0.750000000000     0          
T        Si     0.354300000000     0.098500000000     0.650850000000     0          
T        Si     0.444900000000     0.060100000000     0.695250000000     0          
T        Si     0.197000000000     0.193600000000     0.644000000000     0          
T        Si     0.224500000000     0.194800000000     0.750000000000     0          
T        Si     0.296600000000     0.099400000000     0.750000000000     0          
T        Si     0.195800000000     0.000000000000     0.644950000000     0          
O        O      0.411300000000     0.908000000000     0.658800000000     0          
O        O      0.330100000000     0.902100000000     0.703200000000     0          
O        O      0.341300000000     0.847600000000     0.626050000000     0          
O        O      0.332900000000     0.949400000000     0.621500000000     0          
O        O      0.193200000000     0.809000000000     0.798350000000     0          
O        O      0.183000000000     0.750000000000     0.625000000000     0          
T        Si     0.354300000000     0.901500000000     0.650850000000     0          
T        Si     0.444900000000     0.939900000000     0.695250000000     0          
T        Si     0.197000000000     0.806400000000     0.644000000000     0          
O        O      0.588700000000     0.092000000000     0.658800000000     0          
O        O      0.669900000000     0.097900000000     0.703200000000     0          
O        O      0.658700000000     0.152400000000     0.626050000000     0          
O        O      0.667100000000     0.050600000000     0.621500000000     0          
O        O      0.806800000000     0.191000000000     0.798350000000     0          
O        O      0.817000000000     0.250000000000     0.625000000000     0          
T        Si     0.645700000000     0.098500000000     0.650850000000     0          
T        Si     0.555100000000     0.060100000000     0.695250000000     0          
T        Si     0.803000000000     0.193600000000     0.644000000000     0          
O        O      0.411300000000     0.092000000000     0.841200000000     0          
O        O      0.330100000000     0.097900000000     0.796800000000     0          
O        O      0.341300000000     0.152400000000     0.873950000000     0          
O        O      0.332900000000     0.050600000000     0.878500000000     0          
O        O      0.193200000000     0.191000000000     0.701650000000     0          
O        O      0.183000000000     0.250000000000     0.875000000000     0          
T        Si     0.354300000000     0.098500000000     0.849150000000     0          
T        Si     0.444900000000     0.060100000000     0.804750000000     0          
T        Si     0.197000000000     0.193600000000     0.856000000000     0          
O        O      0.588700000000     0.908000000000     0.841200000000     0          
O        O      0.669900000000     0.902100000000     0.796800000000     0          
O        O      0.658700000000     0.847600000000     0.873950000000     0          
O        O      0.667100000000     0.949400000000     0.878500000000     0          
O        O      0.806800000000     0.809000000000     0.701650000000     0          
O        O      0.817000000000     0.750000000000     0.875000000000     0          
T        Si     0.645700000000     0.901500000000     0.849150000000     0          
T        Si     0.555100000000     0.939900000000     0.804750000000     0          
T        Si     0.803000000000     0.806400000000     0.856000000000     0          
O        O      0.588700000000     0.592000000000     0.591200000000     0          
O        O      0.669900000000     0.597900000000     0.546800000000     0          
O        O      0.658700000000     0.652400000000     0.623950000000     0          
O        O      0.667100000000     0.550600000000     0.628500000000     0          
O        O      0.804700000000     0.500000000000     0.547300000000     0          
O        O      0.560300000000     0.500000000000     0.566850000000     0          
O        O      0.570800000000     0.570300000000     0.500000000000     0          
O        O      0.500000000000     0.577300000000     0.561950000000     0          
O        O      0.806800000000     0.691000000000     0.951650000000     0          
O        O      0.734500000000     0.651300000000     0.500000000000     0          
O        O      0.738600000000     0.550500000000     0.500000000000     0          
T        Si     0.645700000000     0.598500000000     0.599150000000     0          
T        Si     0.555100000000     0.560100000000     0.554750000000     0          
T        Si     0.803000000000     0.693600000000     0.606000000000     0          
T        Si     0.775500000000     0.694800000000     0.500000000000     0          
T        Si     0.703400000000     0.599400000000     0.500000000000     0          
T        Si     0.804200000000     0.500000000000     0.605050000000     0          
T        Si     0.771600000000     0.500000000000     0.500000000000     0          
O        O      0.411300000000     0.408000000000     0.591200000000     0          
O        O      0.330100000000     0.402100000000     0.546800000000     0          
O        O      0.341300000000     0.347600000000     0.623950000000     0          
O        O      0.332900000000     0.449400000000     0.628500000000     0          
O        O      0.195300000000     0.500000000000     0.547300000000     0          
O        O      0.439700000000     0.500000000000     0.566850000000     0          
O        O      0.429200000000     0.429700000000     0.500000000000     0          
O        O      0.500000000000     0.422700000000     0.561950000000     0          
O        O      0.193200000000     0.309000000000     0.951650000000     0          
O        O      0.265500000000     0.348700000000     0.500000000000     0          
O        O      0.261400000000     0.449500000000     0.500000000000     0          
T        Si     0.354300000000     0.401500000000     0.599150000000     0          
T        Si     0.444900000000     0.439900000000     0.554750000000     0          
T        Si     0.197000000000     0.306400000000     0.606000000000     0          
T        Si     0.224500000000     0.305200000000     0.500000000000     0          
T        Si     0.296600000000     0.400600000000     0.500000000000     0          
T        Si     0.195800000000     0.500000000000     0.605050000000     0          
T        Si     0.228400000000     0.500000000000     0.500000000000     0          
O        O      0.588700000000     0.408000000000     0.908800000000     0          
O        O      0.669900000000     0.402100000000     0.953200000000     0          
O        O      0.658700000000     0.347600000000     0.876050000000     0          
O        O      0.667100000000     0.449400000000     0.871500000000     0          
O        O      0.804700000000     0.500000000000     0.952700000000     0          
O        O      0.560300000000     0.500000000000     0.933150000000     0          
O        O      0.570800000000     0.429700000000     0.500000000000     0          
O        O      0.500000000000     0.422700000000     0.938050000000     0          
O        O      0.806800000000     0.309000000000     0.548350000000     0          
O        O      0.734500000000     0.348700000000     0.500000000000     0          
O        O      0.738600000000     0.449500000000     0.500000000000     0          
T        Si     0.645700000000     0.401500000000     0.900850000000     0          
T        Si     0.555100000000     0.439900000000     0.945250000000     0          
T        Si     0.803000000000     0.306400000000     0.894000000000     0          
T        Si     0.775500000000     0.305200000000     0.500000000000     0          
T        Si     0.703400000000     0.400600000000     0.500000000000     0          
T        Si     0.804200000000     0.500000000000     0.894950000000     0          
O        O      0.411300000000     0.592000000000     0.908800000000     0          
O        O      0.330100000000     0.597900000000     0.953200000000     0          
O        O      0.341300000000     0.652400000000     0.876050000000     0          
O        O      0.332900000000     0.550600000000     0.871500000000     0          
O        O      0.195300000000     0.500000000000     0.952700000000     0          
O        O      0.439700000000     0.500000000000     0.933150000000     0          
O        O      0.429200000000     0.570300000000     0.500000000000     0          
O        O      0.500000000000     0.577300000000     0.938050000000     0          
O        O      0.193200000000     0.691000000000     0.548350000000     0          
O        O      0.265500000000     0.651300000000     0.500000000000     0          
O        O      0.261400000000     0.550500000000     0.500000000000     0          
T        Si     0.354300000000     0.598500000000     0.900850000000     0          
T        Si     0.444900000000     0.560100000000     0.945250000000     0          
T        Si     0.197000000000     0.693600000000     0.894000000000     0          
T        Si     0.224500000000     0.694800000000     0.500000000000     0          
T        Si     0.296600000000     0.599400000000     0.500000000000     0          
T        Si     0.195800000000     0.500000000000     0.894950000000     0          
O        O      0.411300000000     0.408000000000     0.908800000000     0          
O        O      0.330100000000     0.402100000000     0.953200000000     0          
O        O      0.341300000000     0.347600000000     0.876050000000     0          
O        O      0.332900000000     0.449400000000     0.871500000000     0          
O        O      0.193200000000     0.309000000000     0.548350000000     0          
T        Si     0.354300000000     0.401500000000     0.900850000000     0          
T        Si     0.444900000000     0.439900000000     0.945250000000     0          
T        Si     0.197000000000     0.306400000000     0.894000000000     0          
O        O      0.588700000000     0.592000000000     0.908800000000     0          
O        O      0.669900000000     0.597900000000     0.953200000000     0          
O        O      0.658700000000     0.652400000000     0.876050000000     0          
O        O      0.667100000000     0.550600000000     0.871500000000     0          
O        O      0.806800000000     0.691000000000     0.548350000000     0          
T        Si     0.645700000000     0.598500000000     0.900850000000     0          
T        Si     0.555100000000     0.560100000000     0.945250000000     0          
T        Si     0.803000000000     0.693600000000     0.894000000000     0          
O        O      0.411300000000     0.592000000000     0.591200000000     0          
O        O      0.330100000000     0.597900000000     0.546800000000     0          
O        O      0.341300000000     0.652400000000     0.623950000000     0          
O        O      0.332900000000     0.550600000000     0.628500000000     0          
O        O      0.193200000000     0.691000000000     0.951650000000     0          
T        Si     0.354300000000     0.598500000000     0.599150000000     0          
T        Si     0.444900000000     0.560100000000     0.554750000000     0          
T        Si     0.197000000000     0.693600000000     0.606000000000     0          
O        O      0.588700000000     0.408000000000     0.591200000000     0          
O        O      0.669900000000     0.402100000000     0.546800000000     0          
O        O      0.658700000000     0.347600000000     0.623950000000     0          
O        O      0.667100000000     0.449400000000     0.628500000000     0          
O        O      0.806800000000     0.309000000000     0.951650000000     0          
T        Si     0.645700000000     0.401500000000     0.599150000000     0          
T        Si     0.555100000000     0.439900000000     0.554750000000     0          
T        Si     0.803000000000     0.306400000000     0.606000000000     0          


