data_zeolite

_audit_creation_method RASPA-1.0
_audit_creation_date 2021-6-7
_audit_author_name ''

_cell_length_a    26.29
_cell_length_b    45.158
_cell_length_c    27.954
_cell_angle_alpha 90
_cell_angle_beta  90
_cell_angle_gamma 90
_cell_volume      33187.1

_symmetry_cell_setting          orthorhombic
_symmetry_space_group_name_Hall 'P 1'
_symmetry_space_group_name_H-M  'P 1'
_symmetry_Int_Tables_number     1

_symmetry_equiv_pos_as_xyz 'x,y,z'

loop_
_atom_site_label
_atom_site_type_symbol
_atom_site_fract_x
_atom_site_fract_y
_atom_site_fract_z
_atom_site_charge
O        O      0.150000000000     0.404050000000     0.105200000000     0          
O        O      0.000000000000     0.375000000000     0.038700000000     0          
O        O      0.050000000000     0.345850000000     0.472400000000     0          
O        O      0.150000000000     0.304250000000     0.170350000000     0          
O        O      0.000000000000     0.296250000000     0.090150000000     0          
O        O      0.150000000000     0.283200000000     0.258800000000     0          
O        O      0.199980000000     0.255850000000     0.190050000000     0          
O        O      0.150000000000     0.208050000000     0.490750000000     0          
O        O      0.100000000000     0.196900000000     0.070050000000     0          
O        O      0.050000000000     0.213500000000     0.146500000000     0          
O        O      0.050000000000     0.247400000000     0.069650000000     0          
T        Si     0.150000000000     0.375000000000     0.071850000000     0          
T        Si     0.050000000000     0.375000000000     0.005550000000     0          
T        Si     0.150000000000     0.310700000000     0.113650000000     0          
T        Si     0.150000000000     0.274800000000     0.202850000000     0          
T        Si     0.150000000000     0.189000000000     0.039350000000     0          
T        Si     0.050000000000     0.235350000000     0.192000000000     0          
T        Si     0.050000000000     0.213800000000     0.088900000000     0          
T        Si     0.050000000000     0.282900000000     0.064950000000     0          
O        O      0.150000000000     0.345950000000     0.105200000000     0          
O        O      0.100000000000     0.375000000000     0.038700000000     0          
O        O      0.050000000000     0.404150000000     0.472400000000     0          
O        O      0.150000000000     0.445750000000     0.170350000000     0          
O        O      0.100000000000     0.453750000000     0.090150000000     0          
O        O      0.150000000000     0.466800000000     0.258800000000     0          
O        O      0.100020000000     0.494150000000     0.190050000000     0          
O        O      0.150000000000     0.041950000000     0.490750000000     0          
O        O      0.000000000000     0.053100000000     0.070050000000     0          
O        O      0.050000000000     0.036500000000     0.146500000000     0          
O        O      0.050000000000     0.002600000000     0.069650000000     0          
T        Si     0.150000000000     0.439300000000     0.113650000000     0          
T        Si     0.150000000000     0.475200000000     0.202850000000     0          
T        Si     0.150000000000     0.061000000000     0.039350000000     0          
T        Si     0.050000000000     0.014650000000     0.192000000000     0          
T        Si     0.050000000000     0.036200000000     0.088900000000     0          
T        Si     0.050000000000     0.467100000000     0.064950000000     0          
O        O      0.050000000000     0.095950000000     0.394800000000     0          
O        O      0.100000000000     0.125000000000     0.461300000000     0          
O        O      0.150000000000     0.154150000000     0.027600000000     0          
O        O      0.050000000000     0.195750000000     0.329650000000     0          
O        O      0.100000000000     0.203750000000     0.409850000000     0          
O        O      0.050000000000     0.216800000000     0.241200000000     0          
O        O      0.099980000000     0.244150000000     0.309950000000     0          
O        O      0.050000000000     0.291950000000     0.009250000000     0          
O        O      0.000000000000     0.303100000000     0.429950000000     0          
O        O      0.150000000000     0.286500000000     0.353500000000     0          
O        O      0.150000000000     0.252600000000     0.430350000000     0          
T        Si     0.050000000000     0.125000000000     0.428150000000     0          
T        Si     0.150000000000     0.125000000000     0.494450000000     0          
T        Si     0.050000000000     0.189300000000     0.386350000000     0          
T        Si     0.050000000000     0.225200000000     0.297150000000     0          
T        Si     0.050000000000     0.311000000000     0.460650000000     0          
T        Si     0.150000000000     0.264650000000     0.308000000000     0          
T        Si     0.150000000000     0.286200000000     0.411100000000     0          
T        Si     0.150000000000     0.217100000000     0.435050000000     0          
O        O      0.050000000000     0.154050000000     0.394800000000     0          
O        O      0.000000000000     0.125000000000     0.461300000000     0          
O        O      0.150000000000     0.095850000000     0.027600000000     0          
O        O      0.050000000000     0.054250000000     0.329650000000     0          
O        O      0.000000000000     0.046250000000     0.409850000000     0          
O        O      0.050000000000     0.033200000000     0.241200000000     0          
O        O      0.000020000000     0.005850000000     0.309950000000     0          
O        O      0.050000000000     0.458050000000     0.009250000000     0          
O        O      0.100000000000     0.446900000000     0.429950000000     0          
O        O      0.150000000000     0.463500000000     0.353500000000     0          
O        O      0.150000000000     0.497400000000     0.430350000000     0          
T        Si     0.050000000000     0.060700000000     0.386350000000     0          
T        Si     0.050000000000     0.024800000000     0.297150000000     0          
T        Si     0.050000000000     0.439000000000     0.460650000000     0          
T        Si     0.150000000000     0.485350000000     0.308000000000     0          
T        Si     0.150000000000     0.463800000000     0.411100000000     0          
T        Si     0.150000000000     0.032900000000     0.435050000000     0          
O        O      0.000000000000     0.203750000000     0.409850000000     0          
O        O      0.000020000000     0.244150000000     0.309950000000     0          
O        O      0.100000000000     0.303100000000     0.429950000000     0          
O        O      0.100000000000     0.046250000000     0.409850000000     0          
O        O      0.099980000000     0.005850000000     0.309950000000     0          
O        O      0.000000000000     0.446900000000     0.429950000000     0          
O        O      0.100000000000     0.296250000000     0.090150000000     0          
O        O      0.100020000000     0.255850000000     0.190050000000     0          
O        O      0.000000000000     0.196900000000     0.070050000000     0          
O        O      0.000000000000     0.453750000000     0.090150000000     0          
O        O      0.199980000000     0.494150000000     0.190050000000     0          
O        O      0.100000000000     0.053100000000     0.070050000000     0          
O        O      0.150000000000     0.404050000000     0.605200000000     0          
O        O      0.000000000000     0.375000000000     0.538700000000     0          
O        O      0.050000000000     0.345850000000     0.972400000000     0          
O        O      0.150000000000     0.304250000000     0.670350000000     0          
O        O      0.000000000000     0.296250000000     0.590150000000     0          
O        O      0.150000000000     0.283200000000     0.758800000000     0          
O        O      0.199980000000     0.255850000000     0.690050000000     0          
O        O      0.150000000000     0.208050000000     0.990750000000     0          
O        O      0.100000000000     0.196900000000     0.570050000000     0          
O        O      0.050000000000     0.213500000000     0.646500000000     0          
O        O      0.050000000000     0.247400000000     0.569650000000     0          
T        Si     0.150000000000     0.375000000000     0.571850000000     0          
T        Si     0.050000000000     0.375000000000     0.505550000000     0          
T        Si     0.150000000000     0.310700000000     0.613650000000     0          
T        Si     0.150000000000     0.274800000000     0.702850000000     0          
T        Si     0.150000000000     0.189000000000     0.539350000000     0          
T        Si     0.050000000000     0.235350000000     0.692000000000     0          
T        Si     0.050000000000     0.213800000000     0.588900000000     0          
T        Si     0.050000000000     0.282900000000     0.564950000000     0          
O        O      0.150000000000     0.345950000000     0.605200000000     0          
O        O      0.100000000000     0.375000000000     0.538700000000     0          
O        O      0.050000000000     0.404150000000     0.972400000000     0          
O        O      0.150000000000     0.445750000000     0.670350000000     0          
O        O      0.100000000000     0.453750000000     0.590150000000     0          
O        O      0.150000000000     0.466800000000     0.758800000000     0          
O        O      0.100020000000     0.494150000000     0.690050000000     0          
O        O      0.150000000000     0.041950000000     0.990750000000     0          
O        O      0.000000000000     0.053100000000     0.570050000000     0          
O        O      0.050000000000     0.036500000000     0.646500000000     0          
O        O      0.050000000000     0.002600000000     0.569650000000     0          
T        Si     0.150000000000     0.439300000000     0.613650000000     0          
T        Si     0.150000000000     0.475200000000     0.702850000000     0          
T        Si     0.150000000000     0.061000000000     0.539350000000     0          
T        Si     0.050000000000     0.014650000000     0.692000000000     0          
T        Si     0.050000000000     0.036200000000     0.588900000000     0          
T        Si     0.050000000000     0.467100000000     0.564950000000     0          
O        O      0.050000000000     0.095950000000     0.894800000000     0          
O        O      0.100000000000     0.125000000000     0.961300000000     0          
O        O      0.150000000000     0.154150000000     0.527600000000     0          
O        O      0.050000000000     0.195750000000     0.829650000000     0          
O        O      0.100000000000     0.203750000000     0.909850000000     0          
O        O      0.050000000000     0.216800000000     0.741200000000     0          
O        O      0.099980000000     0.244150000000     0.809950000000     0          
O        O      0.050000000000     0.291950000000     0.509250000000     0          
O        O      0.000000000000     0.303100000000     0.929950000000     0          
O        O      0.150000000000     0.286500000000     0.853500000000     0          
O        O      0.150000000000     0.252600000000     0.930350000000     0          
T        Si     0.050000000000     0.125000000000     0.928150000000     0          
T        Si     0.150000000000     0.125000000000     0.994450000000     0          
T        Si     0.050000000000     0.189300000000     0.886350000000     0          
T        Si     0.050000000000     0.225200000000     0.797150000000     0          
T        Si     0.050000000000     0.311000000000     0.960650000000     0          
T        Si     0.150000000000     0.264650000000     0.808000000000     0          
T        Si     0.150000000000     0.286200000000     0.911100000000     0          
T        Si     0.150000000000     0.217100000000     0.935050000000     0          
O        O      0.050000000000     0.154050000000     0.894800000000     0          
O        O      0.000000000000     0.125000000000     0.961300000000     0          
O        O      0.150000000000     0.095850000000     0.527600000000     0          
O        O      0.050000000000     0.054250000000     0.829650000000     0          
O        O      0.000000000000     0.046250000000     0.909850000000     0          
O        O      0.050000000000     0.033200000000     0.741200000000     0          
O        O      0.000020000000     0.005850000000     0.809950000000     0          
O        O      0.050000000000     0.458050000000     0.509250000000     0          
O        O      0.100000000000     0.446900000000     0.929950000000     0          
O        O      0.150000000000     0.463500000000     0.853500000000     0          
O        O      0.150000000000     0.497400000000     0.930350000000     0          
T        Si     0.050000000000     0.060700000000     0.886350000000     0          
T        Si     0.050000000000     0.024800000000     0.797150000000     0          
T        Si     0.050000000000     0.439000000000     0.960650000000     0          
T        Si     0.150000000000     0.485350000000     0.808000000000     0          
T        Si     0.150000000000     0.463800000000     0.911100000000     0          
T        Si     0.150000000000     0.032900000000     0.935050000000     0          
O        O      0.000000000000     0.203750000000     0.909850000000     0          
O        O      0.000020000000     0.244150000000     0.809950000000     0          
O        O      0.100000000000     0.303100000000     0.929950000000     0          
O        O      0.100000000000     0.046250000000     0.909850000000     0          
O        O      0.099980000000     0.005850000000     0.809950000000     0          
O        O      0.000000000000     0.446900000000     0.929950000000     0          
O        O      0.100000000000     0.296250000000     0.590150000000     0          
O        O      0.100020000000     0.255850000000     0.690050000000     0          
O        O      0.000000000000     0.196900000000     0.570050000000     0          
O        O      0.000000000000     0.453750000000     0.590150000000     0          
O        O      0.199980000000     0.494150000000     0.690050000000     0          
O        O      0.100000000000     0.053100000000     0.570050000000     0          
O        O      0.150000000000     0.904050000000     0.105200000000     0          
O        O      0.000000000000     0.875000000000     0.038700000000     0          
O        O      0.050000000000     0.845850000000     0.472400000000     0          
O        O      0.150000000000     0.804250000000     0.170350000000     0          
O        O      0.000000000000     0.796250000000     0.090150000000     0          
O        O      0.150000000000     0.783200000000     0.258800000000     0          
O        O      0.199980000000     0.755850000000     0.190050000000     0          
O        O      0.150000000000     0.708050000000     0.490750000000     0          
O        O      0.100000000000     0.696900000000     0.070050000000     0          
O        O      0.050000000000     0.713500000000     0.146500000000     0          
O        O      0.050000000000     0.747400000000     0.069650000000     0          
T        Si     0.150000000000     0.875000000000     0.071850000000     0          
T        Si     0.050000000000     0.875000000000     0.005550000000     0          
T        Si     0.150000000000     0.810700000000     0.113650000000     0          
T        Si     0.150000000000     0.774800000000     0.202850000000     0          
T        Si     0.150000000000     0.689000000000     0.039350000000     0          
T        Si     0.050000000000     0.735350000000     0.192000000000     0          
T        Si     0.050000000000     0.713800000000     0.088900000000     0          
T        Si     0.050000000000     0.782900000000     0.064950000000     0          
O        O      0.150000000000     0.845950000000     0.105200000000     0          
O        O      0.100000000000     0.875000000000     0.038700000000     0          
O        O      0.050000000000     0.904150000000     0.472400000000     0          
O        O      0.150000000000     0.945750000000     0.170350000000     0          
O        O      0.100000000000     0.953750000000     0.090150000000     0          
O        O      0.150000000000     0.966800000000     0.258800000000     0          
O        O      0.100020000000     0.994150000000     0.190050000000     0          
O        O      0.150000000000     0.541950000000     0.490750000000     0          
O        O      0.000000000000     0.553100000000     0.070050000000     0          
O        O      0.050000000000     0.536500000000     0.146500000000     0          
O        O      0.050000000000     0.502600000000     0.069650000000     0          
T        Si     0.150000000000     0.939300000000     0.113650000000     0          
T        Si     0.150000000000     0.975200000000     0.202850000000     0          
T        Si     0.150000000000     0.561000000000     0.039350000000     0          
T        Si     0.050000000000     0.514650000000     0.192000000000     0          
T        Si     0.050000000000     0.536200000000     0.088900000000     0          
T        Si     0.050000000000     0.967100000000     0.064950000000     0          
O        O      0.050000000000     0.595950000000     0.394800000000     0          
O        O      0.100000000000     0.625000000000     0.461300000000     0          
O        O      0.150000000000     0.654150000000     0.027600000000     0          
O        O      0.050000000000     0.695750000000     0.329650000000     0          
O        O      0.100000000000     0.703750000000     0.409850000000     0          
O        O      0.050000000000     0.716800000000     0.241200000000     0          
O        O      0.099980000000     0.744150000000     0.309950000000     0          
O        O      0.050000000000     0.791950000000     0.009250000000     0          
O        O      0.000000000000     0.803100000000     0.429950000000     0          
O        O      0.150000000000     0.786500000000     0.353500000000     0          
O        O      0.150000000000     0.752600000000     0.430350000000     0          
T        Si     0.050000000000     0.625000000000     0.428150000000     0          
T        Si     0.150000000000     0.625000000000     0.494450000000     0          
T        Si     0.050000000000     0.689300000000     0.386350000000     0          
T        Si     0.050000000000     0.725200000000     0.297150000000     0          
T        Si     0.050000000000     0.811000000000     0.460650000000     0          
T        Si     0.150000000000     0.764650000000     0.308000000000     0          
T        Si     0.150000000000     0.786200000000     0.411100000000     0          
T        Si     0.150000000000     0.717100000000     0.435050000000     0          
O        O      0.050000000000     0.654050000000     0.394800000000     0          
O        O      0.000000000000     0.625000000000     0.461300000000     0          
O        O      0.150000000000     0.595850000000     0.027600000000     0          
O        O      0.050000000000     0.554250000000     0.329650000000     0          
O        O      0.000000000000     0.546250000000     0.409850000000     0          
O        O      0.050000000000     0.533200000000     0.241200000000     0          
O        O      0.000020000000     0.505850000000     0.309950000000     0          
O        O      0.050000000000     0.958050000000     0.009250000000     0          
O        O      0.100000000000     0.946900000000     0.429950000000     0          
O        O      0.150000000000     0.963500000000     0.353500000000     0          
O        O      0.150000000000     0.997400000000     0.430350000000     0          
T        Si     0.050000000000     0.560700000000     0.386350000000     0          
T        Si     0.050000000000     0.524800000000     0.297150000000     0          
T        Si     0.050000000000     0.939000000000     0.460650000000     0          
T        Si     0.150000000000     0.985350000000     0.308000000000     0          
T        Si     0.150000000000     0.963800000000     0.411100000000     0          
T        Si     0.150000000000     0.532900000000     0.435050000000     0          
O        O      0.000000000000     0.703750000000     0.409850000000     0          
O        O      0.000020000000     0.744150000000     0.309950000000     0          
O        O      0.100000000000     0.803100000000     0.429950000000     0          
O        O      0.100000000000     0.546250000000     0.409850000000     0          
O        O      0.099980000000     0.505850000000     0.309950000000     0          
O        O      0.000000000000     0.946900000000     0.429950000000     0          
O        O      0.100000000000     0.796250000000     0.090150000000     0          
O        O      0.100020000000     0.755850000000     0.190050000000     0          
O        O      0.000000000000     0.696900000000     0.070050000000     0          
O        O      0.000000000000     0.953750000000     0.090150000000     0          
O        O      0.199980000000     0.994150000000     0.190050000000     0          
O        O      0.100000000000     0.553100000000     0.070050000000     0          
O        O      0.150000000000     0.904050000000     0.605200000000     0          
O        O      0.000000000000     0.875000000000     0.538700000000     0          
O        O      0.050000000000     0.845850000000     0.972400000000     0          
O        O      0.150000000000     0.804250000000     0.670350000000     0          
O        O      0.000000000000     0.796250000000     0.590150000000     0          
O        O      0.150000000000     0.783200000000     0.758800000000     0          
O        O      0.199980000000     0.755850000000     0.690050000000     0          
O        O      0.150000000000     0.708050000000     0.990750000000     0          
O        O      0.100000000000     0.696900000000     0.570050000000     0          
O        O      0.050000000000     0.713500000000     0.646500000000     0          
O        O      0.050000000000     0.747400000000     0.569650000000     0          
T        Si     0.150000000000     0.875000000000     0.571850000000     0          
T        Si     0.050000000000     0.875000000000     0.505550000000     0          
T        Si     0.150000000000     0.810700000000     0.613650000000     0          
T        Si     0.150000000000     0.774800000000     0.702850000000     0          
T        Si     0.150000000000     0.689000000000     0.539350000000     0          
T        Si     0.050000000000     0.735350000000     0.692000000000     0          
T        Si     0.050000000000     0.713800000000     0.588900000000     0          
T        Si     0.050000000000     0.782900000000     0.564950000000     0          
O        O      0.150000000000     0.845950000000     0.605200000000     0          
O        O      0.100000000000     0.875000000000     0.538700000000     0          
O        O      0.050000000000     0.904150000000     0.972400000000     0          
O        O      0.150000000000     0.945750000000     0.670350000000     0          
O        O      0.100000000000     0.953750000000     0.590150000000     0          
O        O      0.150000000000     0.966800000000     0.758800000000     0          
O        O      0.100020000000     0.994150000000     0.690050000000     0          
O        O      0.150000000000     0.541950000000     0.990750000000     0          
O        O      0.000000000000     0.553100000000     0.570050000000     0          
O        O      0.050000000000     0.536500000000     0.646500000000     0          
O        O      0.050000000000     0.502600000000     0.569650000000     0          
T        Si     0.150000000000     0.939300000000     0.613650000000     0          
T        Si     0.150000000000     0.975200000000     0.702850000000     0          
T        Si     0.150000000000     0.561000000000     0.539350000000     0          
T        Si     0.050000000000     0.514650000000     0.692000000000     0          
T        Si     0.050000000000     0.536200000000     0.588900000000     0          
T        Si     0.050000000000     0.967100000000     0.564950000000     0          
O        O      0.050000000000     0.595950000000     0.894800000000     0          
O        O      0.100000000000     0.625000000000     0.961300000000     0          
O        O      0.150000000000     0.654150000000     0.527600000000     0          
O        O      0.050000000000     0.695750000000     0.829650000000     0          
O        O      0.100000000000     0.703750000000     0.909850000000     0          
O        O      0.050000000000     0.716800000000     0.741200000000     0          
O        O      0.099980000000     0.744150000000     0.809950000000     0          
O        O      0.050000000000     0.791950000000     0.509250000000     0          
O        O      0.000000000000     0.803100000000     0.929950000000     0          
O        O      0.150000000000     0.786500000000     0.853500000000     0          
O        O      0.150000000000     0.752600000000     0.930350000000     0          
T        Si     0.050000000000     0.625000000000     0.928150000000     0          
T        Si     0.150000000000     0.625000000000     0.994450000000     0          
T        Si     0.050000000000     0.689300000000     0.886350000000     0          
T        Si     0.050000000000     0.725200000000     0.797150000000     0          
T        Si     0.050000000000     0.811000000000     0.960650000000     0          
T        Si     0.150000000000     0.764650000000     0.808000000000     0          
T        Si     0.150000000000     0.786200000000     0.911100000000     0          
T        Si     0.150000000000     0.717100000000     0.935050000000     0          
O        O      0.050000000000     0.654050000000     0.894800000000     0          
O        O      0.000000000000     0.625000000000     0.961300000000     0          
O        O      0.150000000000     0.595850000000     0.527600000000     0          
O        O      0.050000000000     0.554250000000     0.829650000000     0          
O        O      0.000000000000     0.546250000000     0.909850000000     0          
O        O      0.050000000000     0.533200000000     0.741200000000     0          
O        O      0.000020000000     0.505850000000     0.809950000000     0          
O        O      0.050000000000     0.958050000000     0.509250000000     0          
O        O      0.100000000000     0.946900000000     0.929950000000     0          
O        O      0.150000000000     0.963500000000     0.853500000000     0          
O        O      0.150000000000     0.997400000000     0.930350000000     0          
T        Si     0.050000000000     0.560700000000     0.886350000000     0          
T        Si     0.050000000000     0.524800000000     0.797150000000     0          
T        Si     0.050000000000     0.939000000000     0.960650000000     0          
T        Si     0.150000000000     0.985350000000     0.808000000000     0          
T        Si     0.150000000000     0.963800000000     0.911100000000     0          
T        Si     0.150000000000     0.532900000000     0.935050000000     0          
O        O      0.000000000000     0.703750000000     0.909850000000     0          
O        O      0.000020000000     0.744150000000     0.809950000000     0          
O        O      0.100000000000     0.803100000000     0.929950000000     0          
O        O      0.100000000000     0.546250000000     0.909850000000     0          
O        O      0.099980000000     0.505850000000     0.809950000000     0          
O        O      0.000000000000     0.946900000000     0.929950000000     0          
O        O      0.100000000000     0.796250000000     0.590150000000     0          
O        O      0.100020000000     0.755850000000     0.690050000000     0          
O        O      0.000000000000     0.696900000000     0.570050000000     0          
O        O      0.000000000000     0.953750000000     0.590150000000     0          
O        O      0.199980000000     0.994150000000     0.690050000000     0          
O        O      0.100000000000     0.553100000000     0.570050000000     0          
O        O      0.350000000000     0.404050000000     0.105200000000     0          
O        O      0.200000000000     0.375000000000     0.038700000000     0          
O        O      0.250000000000     0.345850000000     0.472400000000     0          
O        O      0.350000000000     0.304250000000     0.170350000000     0          
O        O      0.200000000000     0.296250000000     0.090150000000     0          
O        O      0.350000000000     0.283200000000     0.258800000000     0          
O        O      0.399980000000     0.255850000000     0.190050000000     0          
O        O      0.350000000000     0.208050000000     0.490750000000     0          
O        O      0.300000000000     0.196900000000     0.070050000000     0          
O        O      0.250000000000     0.213500000000     0.146500000000     0          
O        O      0.250000000000     0.247400000000     0.069650000000     0          
T        Si     0.350000000000     0.375000000000     0.071850000000     0          
T        Si     0.250000000000     0.375000000000     0.005550000000     0          
T        Si     0.350000000000     0.310700000000     0.113650000000     0          
T        Si     0.350000000000     0.274800000000     0.202850000000     0          
T        Si     0.350000000000     0.189000000000     0.039350000000     0          
T        Si     0.250000000000     0.235350000000     0.192000000000     0          
T        Si     0.250000000000     0.213800000000     0.088900000000     0          
T        Si     0.250000000000     0.282900000000     0.064950000000     0          
O        O      0.350000000000     0.345950000000     0.105200000000     0          
O        O      0.300000000000     0.375000000000     0.038700000000     0          
O        O      0.250000000000     0.404150000000     0.472400000000     0          
O        O      0.350000000000     0.445750000000     0.170350000000     0          
O        O      0.300000000000     0.453750000000     0.090150000000     0          
O        O      0.350000000000     0.466800000000     0.258800000000     0          
O        O      0.300020000000     0.494150000000     0.190050000000     0          
O        O      0.350000000000     0.041950000000     0.490750000000     0          
O        O      0.200000000000     0.053100000000     0.070050000000     0          
O        O      0.250000000000     0.036500000000     0.146500000000     0          
O        O      0.250000000000     0.002600000000     0.069650000000     0          
T        Si     0.350000000000     0.439300000000     0.113650000000     0          
T        Si     0.350000000000     0.475200000000     0.202850000000     0          
T        Si     0.350000000000     0.061000000000     0.039350000000     0          
T        Si     0.250000000000     0.014650000000     0.192000000000     0          
T        Si     0.250000000000     0.036200000000     0.088900000000     0          
T        Si     0.250000000000     0.467100000000     0.064950000000     0          
O        O      0.250000000000     0.095950000000     0.394800000000     0          
O        O      0.300000000000     0.125000000000     0.461300000000     0          
O        O      0.350000000000     0.154150000000     0.027600000000     0          
O        O      0.250000000000     0.195750000000     0.329650000000     0          
O        O      0.300000000000     0.203750000000     0.409850000000     0          
O        O      0.250000000000     0.216800000000     0.241200000000     0          
O        O      0.299980000000     0.244150000000     0.309950000000     0          
O        O      0.250000000000     0.291950000000     0.009250000000     0          
O        O      0.200000000000     0.303100000000     0.429950000000     0          
O        O      0.350000000000     0.286500000000     0.353500000000     0          
O        O      0.350000000000     0.252600000000     0.430350000000     0          
T        Si     0.250000000000     0.125000000000     0.428150000000     0          
T        Si     0.350000000000     0.125000000000     0.494450000000     0          
T        Si     0.250000000000     0.189300000000     0.386350000000     0          
T        Si     0.250000000000     0.225200000000     0.297150000000     0          
T        Si     0.250000000000     0.311000000000     0.460650000000     0          
T        Si     0.350000000000     0.264650000000     0.308000000000     0          
T        Si     0.350000000000     0.286200000000     0.411100000000     0          
T        Si     0.350000000000     0.217100000000     0.435050000000     0          
O        O      0.250000000000     0.154050000000     0.394800000000     0          
O        O      0.200000000000     0.125000000000     0.461300000000     0          
O        O      0.350000000000     0.095850000000     0.027600000000     0          
O        O      0.250000000000     0.054250000000     0.329650000000     0          
O        O      0.200000000000     0.046250000000     0.409850000000     0          
O        O      0.250000000000     0.033200000000     0.241200000000     0          
O        O      0.200020000000     0.005850000000     0.309950000000     0          
O        O      0.250000000000     0.458050000000     0.009250000000     0          
O        O      0.300000000000     0.446900000000     0.429950000000     0          
O        O      0.350000000000     0.463500000000     0.353500000000     0          
O        O      0.350000000000     0.497400000000     0.430350000000     0          
T        Si     0.250000000000     0.060700000000     0.386350000000     0          
T        Si     0.250000000000     0.024800000000     0.297150000000     0          
T        Si     0.250000000000     0.439000000000     0.460650000000     0          
T        Si     0.350000000000     0.485350000000     0.308000000000     0          
T        Si     0.350000000000     0.463800000000     0.411100000000     0          
T        Si     0.350000000000     0.032900000000     0.435050000000     0          
O        O      0.200000000000     0.203750000000     0.409850000000     0          
O        O      0.200020000000     0.244150000000     0.309950000000     0          
O        O      0.300000000000     0.303100000000     0.429950000000     0          
O        O      0.300000000000     0.046250000000     0.409850000000     0          
O        O      0.299980000000     0.005850000000     0.309950000000     0          
O        O      0.200000000000     0.446900000000     0.429950000000     0          
O        O      0.300000000000     0.296250000000     0.090150000000     0          
O        O      0.300020000000     0.255850000000     0.190050000000     0          
O        O      0.200000000000     0.196900000000     0.070050000000     0          
O        O      0.200000000000     0.453750000000     0.090150000000     0          
O        O      0.399980000000     0.494150000000     0.190050000000     0          
O        O      0.300000000000     0.053100000000     0.070050000000     0          
O        O      0.350000000000     0.404050000000     0.605200000000     0          
O        O      0.200000000000     0.375000000000     0.538700000000     0          
O        O      0.250000000000     0.345850000000     0.972400000000     0          
O        O      0.350000000000     0.304250000000     0.670350000000     0          
O        O      0.200000000000     0.296250000000     0.590150000000     0          
O        O      0.350000000000     0.283200000000     0.758800000000     0          
O        O      0.399980000000     0.255850000000     0.690050000000     0          
O        O      0.350000000000     0.208050000000     0.990750000000     0          
O        O      0.300000000000     0.196900000000     0.570050000000     0          
O        O      0.250000000000     0.213500000000     0.646500000000     0          
O        O      0.250000000000     0.247400000000     0.569650000000     0          
T        Si     0.350000000000     0.375000000000     0.571850000000     0          
T        Si     0.250000000000     0.375000000000     0.505550000000     0          
T        Si     0.350000000000     0.310700000000     0.613650000000     0          
T        Si     0.350000000000     0.274800000000     0.702850000000     0          
T        Si     0.350000000000     0.189000000000     0.539350000000     0          
T        Si     0.250000000000     0.235350000000     0.692000000000     0          
T        Si     0.250000000000     0.213800000000     0.588900000000     0          
T        Si     0.250000000000     0.282900000000     0.564950000000     0          
O        O      0.350000000000     0.345950000000     0.605200000000     0          
O        O      0.300000000000     0.375000000000     0.538700000000     0          
O        O      0.250000000000     0.404150000000     0.972400000000     0          
O        O      0.350000000000     0.445750000000     0.670350000000     0          
O        O      0.300000000000     0.453750000000     0.590150000000     0          
O        O      0.350000000000     0.466800000000     0.758800000000     0          
O        O      0.300020000000     0.494150000000     0.690050000000     0          
O        O      0.350000000000     0.041950000000     0.990750000000     0          
O        O      0.200000000000     0.053100000000     0.570050000000     0          
O        O      0.250000000000     0.036500000000     0.646500000000     0          
O        O      0.250000000000     0.002600000000     0.569650000000     0          
T        Si     0.350000000000     0.439300000000     0.613650000000     0          
T        Si     0.350000000000     0.475200000000     0.702850000000     0          
T        Si     0.350000000000     0.061000000000     0.539350000000     0          
T        Si     0.250000000000     0.014650000000     0.692000000000     0          
T        Si     0.250000000000     0.036200000000     0.588900000000     0          
T        Si     0.250000000000     0.467100000000     0.564950000000     0          
O        O      0.250000000000     0.095950000000     0.894800000000     0          
O        O      0.300000000000     0.125000000000     0.961300000000     0          
O        O      0.350000000000     0.154150000000     0.527600000000     0          
O        O      0.250000000000     0.195750000000     0.829650000000     0          
O        O      0.300000000000     0.203750000000     0.909850000000     0          
O        O      0.250000000000     0.216800000000     0.741200000000     0          
O        O      0.299980000000     0.244150000000     0.809950000000     0          
O        O      0.250000000000     0.291950000000     0.509250000000     0          
O        O      0.200000000000     0.303100000000     0.929950000000     0          
O        O      0.350000000000     0.286500000000     0.853500000000     0          
O        O      0.350000000000     0.252600000000     0.930350000000     0          
T        Si     0.250000000000     0.125000000000     0.928150000000     0          
T        Si     0.350000000000     0.125000000000     0.994450000000     0          
T        Si     0.250000000000     0.189300000000     0.886350000000     0          
T        Si     0.250000000000     0.225200000000     0.797150000000     0          
T        Si     0.250000000000     0.311000000000     0.960650000000     0          
T        Si     0.350000000000     0.264650000000     0.808000000000     0          
T        Si     0.350000000000     0.286200000000     0.911100000000     0          
T        Si     0.350000000000     0.217100000000     0.935050000000     0          
O        O      0.250000000000     0.154050000000     0.894800000000     0          
O        O      0.200000000000     0.125000000000     0.961300000000     0          
O        O      0.350000000000     0.095850000000     0.527600000000     0          
O        O      0.250000000000     0.054250000000     0.829650000000     0          
O        O      0.200000000000     0.046250000000     0.909850000000     0          
O        O      0.250000000000     0.033200000000     0.741200000000     0          
O        O      0.200020000000     0.005850000000     0.809950000000     0          
O        O      0.250000000000     0.458050000000     0.509250000000     0          
O        O      0.300000000000     0.446900000000     0.929950000000     0          
O        O      0.350000000000     0.463500000000     0.853500000000     0          
O        O      0.350000000000     0.497400000000     0.930350000000     0          
T        Si     0.250000000000     0.060700000000     0.886350000000     0          
T        Si     0.250000000000     0.024800000000     0.797150000000     0          
T        Si     0.250000000000     0.439000000000     0.960650000000     0          
T        Si     0.350000000000     0.485350000000     0.808000000000     0          
T        Si     0.350000000000     0.463800000000     0.911100000000     0          
T        Si     0.350000000000     0.032900000000     0.935050000000     0          
O        O      0.200000000000     0.203750000000     0.909850000000     0          
O        O      0.200020000000     0.244150000000     0.809950000000     0          
O        O      0.300000000000     0.303100000000     0.929950000000     0          
O        O      0.300000000000     0.046250000000     0.909850000000     0          
O        O      0.299980000000     0.005850000000     0.809950000000     0          
O        O      0.200000000000     0.446900000000     0.929950000000     0          
O        O      0.300000000000     0.296250000000     0.590150000000     0          
O        O      0.300020000000     0.255850000000     0.690050000000     0          
O        O      0.200000000000     0.196900000000     0.570050000000     0          
O        O      0.200000000000     0.453750000000     0.590150000000     0          
O        O      0.399980000000     0.494150000000     0.690050000000     0          
O        O      0.300000000000     0.053100000000     0.570050000000     0          
O        O      0.350000000000     0.904050000000     0.105200000000     0          
O        O      0.200000000000     0.875000000000     0.038700000000     0          
O        O      0.250000000000     0.845850000000     0.472400000000     0          
O        O      0.350000000000     0.804250000000     0.170350000000     0          
O        O      0.200000000000     0.796250000000     0.090150000000     0          
O        O      0.350000000000     0.783200000000     0.258800000000     0          
O        O      0.399980000000     0.755850000000     0.190050000000     0          
O        O      0.350000000000     0.708050000000     0.490750000000     0          
O        O      0.300000000000     0.696900000000     0.070050000000     0          
O        O      0.250000000000     0.713500000000     0.146500000000     0          
O        O      0.250000000000     0.747400000000     0.069650000000     0          
T        Si     0.350000000000     0.875000000000     0.071850000000     0          
T        Si     0.250000000000     0.875000000000     0.005550000000     0          
T        Si     0.350000000000     0.810700000000     0.113650000000     0          
T        Si     0.350000000000     0.774800000000     0.202850000000     0          
T        Si     0.350000000000     0.689000000000     0.039350000000     0          
T        Si     0.250000000000     0.735350000000     0.192000000000     0          
T        Si     0.250000000000     0.713800000000     0.088900000000     0          
T        Si     0.250000000000     0.782900000000     0.064950000000     0          
O        O      0.350000000000     0.845950000000     0.105200000000     0          
O        O      0.300000000000     0.875000000000     0.038700000000     0          
O        O      0.250000000000     0.904150000000     0.472400000000     0          
O        O      0.350000000000     0.945750000000     0.170350000000     0          
O        O      0.300000000000     0.953750000000     0.090150000000     0          
O        O      0.350000000000     0.966800000000     0.258800000000     0          
O        O      0.300020000000     0.994150000000     0.190050000000     0          
O        O      0.350000000000     0.541950000000     0.490750000000     0          
O        O      0.200000000000     0.553100000000     0.070050000000     0          
O        O      0.250000000000     0.536500000000     0.146500000000     0          
O        O      0.250000000000     0.502600000000     0.069650000000     0          
T        Si     0.350000000000     0.939300000000     0.113650000000     0          
T        Si     0.350000000000     0.975200000000     0.202850000000     0          
T        Si     0.350000000000     0.561000000000     0.039350000000     0          
T        Si     0.250000000000     0.514650000000     0.192000000000     0          
T        Si     0.250000000000     0.536200000000     0.088900000000     0          
T        Si     0.250000000000     0.967100000000     0.064950000000     0          
O        O      0.250000000000     0.595950000000     0.394800000000     0          
O        O      0.300000000000     0.625000000000     0.461300000000     0          
O        O      0.350000000000     0.654150000000     0.027600000000     0          
O        O      0.250000000000     0.695750000000     0.329650000000     0          
O        O      0.300000000000     0.703750000000     0.409850000000     0          
O        O      0.250000000000     0.716800000000     0.241200000000     0          
O        O      0.299980000000     0.744150000000     0.309950000000     0          
O        O      0.250000000000     0.791950000000     0.009250000000     0          
O        O      0.200000000000     0.803100000000     0.429950000000     0          
O        O      0.350000000000     0.786500000000     0.353500000000     0          
O        O      0.350000000000     0.752600000000     0.430350000000     0          
T        Si     0.250000000000     0.625000000000     0.428150000000     0          
T        Si     0.350000000000     0.625000000000     0.494450000000     0          
T        Si     0.250000000000     0.689300000000     0.386350000000     0          
T        Si     0.250000000000     0.725200000000     0.297150000000     0          
T        Si     0.250000000000     0.811000000000     0.460650000000     0          
T        Si     0.350000000000     0.764650000000     0.308000000000     0          
T        Si     0.350000000000     0.786200000000     0.411100000000     0          
T        Si     0.350000000000     0.717100000000     0.435050000000     0          
O        O      0.250000000000     0.654050000000     0.394800000000     0          
O        O      0.200000000000     0.625000000000     0.461300000000     0          
O        O      0.350000000000     0.595850000000     0.027600000000     0          
O        O      0.250000000000     0.554250000000     0.329650000000     0          
O        O      0.200000000000     0.546250000000     0.409850000000     0          
O        O      0.250000000000     0.533200000000     0.241200000000     0          
O        O      0.200020000000     0.505850000000     0.309950000000     0          
O        O      0.250000000000     0.958050000000     0.009250000000     0          
O        O      0.300000000000     0.946900000000     0.429950000000     0          
O        O      0.350000000000     0.963500000000     0.353500000000     0          
O        O      0.350000000000     0.997400000000     0.430350000000     0          
T        Si     0.250000000000     0.560700000000     0.386350000000     0          
T        Si     0.250000000000     0.524800000000     0.297150000000     0          
T        Si     0.250000000000     0.939000000000     0.460650000000     0          
T        Si     0.350000000000     0.985350000000     0.308000000000     0          
T        Si     0.350000000000     0.963800000000     0.411100000000     0          
T        Si     0.350000000000     0.532900000000     0.435050000000     0          
O        O      0.200000000000     0.703750000000     0.409850000000     0          
O        O      0.200020000000     0.744150000000     0.309950000000     0          
O        O      0.300000000000     0.803100000000     0.429950000000     0          
O        O      0.300000000000     0.546250000000     0.409850000000     0          
O        O      0.299980000000     0.505850000000     0.309950000000     0          
O        O      0.200000000000     0.946900000000     0.429950000000     0          
O        O      0.300000000000     0.796250000000     0.090150000000     0          
O        O      0.300020000000     0.755850000000     0.190050000000     0          
O        O      0.200000000000     0.696900000000     0.070050000000     0          
O        O      0.200000000000     0.953750000000     0.090150000000     0          
O        O      0.399980000000     0.994150000000     0.190050000000     0          
O        O      0.300000000000     0.553100000000     0.070050000000     0          
O        O      0.350000000000     0.904050000000     0.605200000000     0          
O        O      0.200000000000     0.875000000000     0.538700000000     0          
O        O      0.250000000000     0.845850000000     0.972400000000     0          
O        O      0.350000000000     0.804250000000     0.670350000000     0          
O        O      0.200000000000     0.796250000000     0.590150000000     0          
O        O      0.350000000000     0.783200000000     0.758800000000     0          
O        O      0.399980000000     0.755850000000     0.690050000000     0          
O        O      0.350000000000     0.708050000000     0.990750000000     0          
O        O      0.300000000000     0.696900000000     0.570050000000     0          
O        O      0.250000000000     0.713500000000     0.646500000000     0          
O        O      0.250000000000     0.747400000000     0.569650000000     0          
T        Si     0.350000000000     0.875000000000     0.571850000000     0          
T        Si     0.250000000000     0.875000000000     0.505550000000     0          
T        Si     0.350000000000     0.810700000000     0.613650000000     0          
T        Si     0.350000000000     0.774800000000     0.702850000000     0          
T        Si     0.350000000000     0.689000000000     0.539350000000     0          
T        Si     0.250000000000     0.735350000000     0.692000000000     0          
T        Si     0.250000000000     0.713800000000     0.588900000000     0          
T        Si     0.250000000000     0.782900000000     0.564950000000     0          
O        O      0.350000000000     0.845950000000     0.605200000000     0          
O        O      0.300000000000     0.875000000000     0.538700000000     0          
O        O      0.250000000000     0.904150000000     0.972400000000     0          
O        O      0.350000000000     0.945750000000     0.670350000000     0          
O        O      0.300000000000     0.953750000000     0.590150000000     0          
O        O      0.350000000000     0.966800000000     0.758800000000     0          
O        O      0.300020000000     0.994150000000     0.690050000000     0          
O        O      0.350000000000     0.541950000000     0.990750000000     0          
O        O      0.200000000000     0.553100000000     0.570050000000     0          
O        O      0.250000000000     0.536500000000     0.646500000000     0          
O        O      0.250000000000     0.502600000000     0.569650000000     0          
T        Si     0.350000000000     0.939300000000     0.613650000000     0          
T        Si     0.350000000000     0.975200000000     0.702850000000     0          
T        Si     0.350000000000     0.561000000000     0.539350000000     0          
T        Si     0.250000000000     0.514650000000     0.692000000000     0          
T        Si     0.250000000000     0.536200000000     0.588900000000     0          
T        Si     0.250000000000     0.967100000000     0.564950000000     0          
O        O      0.250000000000     0.595950000000     0.894800000000     0          
O        O      0.300000000000     0.625000000000     0.961300000000     0          
O        O      0.350000000000     0.654150000000     0.527600000000     0          
O        O      0.250000000000     0.695750000000     0.829650000000     0          
O        O      0.300000000000     0.703750000000     0.909850000000     0          
O        O      0.250000000000     0.716800000000     0.741200000000     0          
O        O      0.299980000000     0.744150000000     0.809950000000     0          
O        O      0.250000000000     0.791950000000     0.509250000000     0          
O        O      0.200000000000     0.803100000000     0.929950000000     0          
O        O      0.350000000000     0.786500000000     0.853500000000     0          
O        O      0.350000000000     0.752600000000     0.930350000000     0          
T        Si     0.250000000000     0.625000000000     0.928150000000     0          
T        Si     0.350000000000     0.625000000000     0.994450000000     0          
T        Si     0.250000000000     0.689300000000     0.886350000000     0          
T        Si     0.250000000000     0.725200000000     0.797150000000     0          
T        Si     0.250000000000     0.811000000000     0.960650000000     0          
T        Si     0.350000000000     0.764650000000     0.808000000000     0          
T        Si     0.350000000000     0.786200000000     0.911100000000     0          
T        Si     0.350000000000     0.717100000000     0.935050000000     0          
O        O      0.250000000000     0.654050000000     0.894800000000     0          
O        O      0.200000000000     0.625000000000     0.961300000000     0          
O        O      0.350000000000     0.595850000000     0.527600000000     0          
O        O      0.250000000000     0.554250000000     0.829650000000     0          
O        O      0.200000000000     0.546250000000     0.909850000000     0          
O        O      0.250000000000     0.533200000000     0.741200000000     0          
O        O      0.200020000000     0.505850000000     0.809950000000     0          
O        O      0.250000000000     0.958050000000     0.509250000000     0          
O        O      0.300000000000     0.946900000000     0.929950000000     0          
O        O      0.350000000000     0.963500000000     0.853500000000     0          
O        O      0.350000000000     0.997400000000     0.930350000000     0          
T        Si     0.250000000000     0.560700000000     0.886350000000     0          
T        Si     0.250000000000     0.524800000000     0.797150000000     0          
T        Si     0.250000000000     0.939000000000     0.960650000000     0          
T        Si     0.350000000000     0.985350000000     0.808000000000     0          
T        Si     0.350000000000     0.963800000000     0.911100000000     0          
T        Si     0.350000000000     0.532900000000     0.935050000000     0          
O        O      0.200000000000     0.703750000000     0.909850000000     0          
O        O      0.200020000000     0.744150000000     0.809950000000     0          
O        O      0.300000000000     0.803100000000     0.929950000000     0          
O        O      0.300000000000     0.546250000000     0.909850000000     0          
O        O      0.299980000000     0.505850000000     0.809950000000     0          
O        O      0.200000000000     0.946900000000     0.929950000000     0          
O        O      0.300000000000     0.796250000000     0.590150000000     0          
O        O      0.300020000000     0.755850000000     0.690050000000     0          
O        O      0.200000000000     0.696900000000     0.570050000000     0          
O        O      0.200000000000     0.953750000000     0.590150000000     0          
O        O      0.399980000000     0.994150000000     0.690050000000     0          
O        O      0.300000000000     0.553100000000     0.570050000000     0          
O        O      0.550000000000     0.404050000000     0.105200000000     0          
O        O      0.400000000000     0.375000000000     0.038700000000     0          
O        O      0.450000000000     0.345850000000     0.472400000000     0          
O        O      0.550000000000     0.304250000000     0.170350000000     0          
O        O      0.400000000000     0.296250000000     0.090150000000     0          
O        O      0.550000000000     0.283200000000     0.258800000000     0          
O        O      0.599980000000     0.255850000000     0.190050000000     0          
O        O      0.550000000000     0.208050000000     0.490750000000     0          
O        O      0.500000000000     0.196900000000     0.070050000000     0          
O        O      0.450000000000     0.213500000000     0.146500000000     0          
O        O      0.450000000000     0.247400000000     0.069650000000     0          
T        Si     0.550000000000     0.375000000000     0.071850000000     0          
T        Si     0.450000000000     0.375000000000     0.005550000000     0          
T        Si     0.550000000000     0.310700000000     0.113650000000     0          
T        Si     0.550000000000     0.274800000000     0.202850000000     0          
T        Si     0.550000000000     0.189000000000     0.039350000000     0          
T        Si     0.450000000000     0.235350000000     0.192000000000     0          
T        Si     0.450000000000     0.213800000000     0.088900000000     0          
T        Si     0.450000000000     0.282900000000     0.064950000000     0          
O        O      0.550000000000     0.345950000000     0.105200000000     0          
O        O      0.500000000000     0.375000000000     0.038700000000     0          
O        O      0.450000000000     0.404150000000     0.472400000000     0          
O        O      0.550000000000     0.445750000000     0.170350000000     0          
O        O      0.500000000000     0.453750000000     0.090150000000     0          
O        O      0.550000000000     0.466800000000     0.258800000000     0          
O        O      0.500020000000     0.494150000000     0.190050000000     0          
O        O      0.550000000000     0.041950000000     0.490750000000     0          
O        O      0.400000000000     0.053100000000     0.070050000000     0          
O        O      0.450000000000     0.036500000000     0.146500000000     0          
O        O      0.450000000000     0.002600000000     0.069650000000     0          
T        Si     0.550000000000     0.439300000000     0.113650000000     0          
T        Si     0.550000000000     0.475200000000     0.202850000000     0          
T        Si     0.550000000000     0.061000000000     0.039350000000     0          
T        Si     0.450000000000     0.014650000000     0.192000000000     0          
T        Si     0.450000000000     0.036200000000     0.088900000000     0          
T        Si     0.450000000000     0.467100000000     0.064950000000     0          
O        O      0.450000000000     0.095950000000     0.394800000000     0          
O        O      0.500000000000     0.125000000000     0.461300000000     0          
O        O      0.550000000000     0.154150000000     0.027600000000     0          
O        O      0.450000000000     0.195750000000     0.329650000000     0          
O        O      0.500000000000     0.203750000000     0.409850000000     0          
O        O      0.450000000000     0.216800000000     0.241200000000     0          
O        O      0.499980000000     0.244150000000     0.309950000000     0          
O        O      0.450000000000     0.291950000000     0.009250000000     0          
O        O      0.400000000000     0.303100000000     0.429950000000     0          
O        O      0.550000000000     0.286500000000     0.353500000000     0          
O        O      0.550000000000     0.252600000000     0.430350000000     0          
T        Si     0.450000000000     0.125000000000     0.428150000000     0          
T        Si     0.550000000000     0.125000000000     0.494450000000     0          
T        Si     0.450000000000     0.189300000000     0.386350000000     0          
T        Si     0.450000000000     0.225200000000     0.297150000000     0          
T        Si     0.450000000000     0.311000000000     0.460650000000     0          
T        Si     0.550000000000     0.264650000000     0.308000000000     0          
T        Si     0.550000000000     0.286200000000     0.411100000000     0          
T        Si     0.550000000000     0.217100000000     0.435050000000     0          
O        O      0.450000000000     0.154050000000     0.394800000000     0          
O        O      0.400000000000     0.125000000000     0.461300000000     0          
O        O      0.550000000000     0.095850000000     0.027600000000     0          
O        O      0.450000000000     0.054250000000     0.329650000000     0          
O        O      0.400000000000     0.046250000000     0.409850000000     0          
O        O      0.450000000000     0.033200000000     0.241200000000     0          
O        O      0.400020000000     0.005850000000     0.309950000000     0          
O        O      0.450000000000     0.458050000000     0.009250000000     0          
O        O      0.500000000000     0.446900000000     0.429950000000     0          
O        O      0.550000000000     0.463500000000     0.353500000000     0          
O        O      0.550000000000     0.497400000000     0.430350000000     0          
T        Si     0.450000000000     0.060700000000     0.386350000000     0          
T        Si     0.450000000000     0.024800000000     0.297150000000     0          
T        Si     0.450000000000     0.439000000000     0.460650000000     0          
T        Si     0.550000000000     0.485350000000     0.308000000000     0          
T        Si     0.550000000000     0.463800000000     0.411100000000     0          
T        Si     0.550000000000     0.032900000000     0.435050000000     0          
O        O      0.400000000000     0.203750000000     0.409850000000     0          
O        O      0.400020000000     0.244150000000     0.309950000000     0          
O        O      0.500000000000     0.303100000000     0.429950000000     0          
O        O      0.500000000000     0.046250000000     0.409850000000     0          
O        O      0.499980000000     0.005850000000     0.309950000000     0          
O        O      0.400000000000     0.446900000000     0.429950000000     0          
O        O      0.500000000000     0.296250000000     0.090150000000     0          
O        O      0.500020000000     0.255850000000     0.190050000000     0          
O        O      0.400000000000     0.196900000000     0.070050000000     0          
O        O      0.400000000000     0.453750000000     0.090150000000     0          
O        O      0.599980000000     0.494150000000     0.190050000000     0          
O        O      0.500000000000     0.053100000000     0.070050000000     0          
O        O      0.550000000000     0.404050000000     0.605200000000     0          
O        O      0.400000000000     0.375000000000     0.538700000000     0          
O        O      0.450000000000     0.345850000000     0.972400000000     0          
O        O      0.550000000000     0.304250000000     0.670350000000     0          
O        O      0.400000000000     0.296250000000     0.590150000000     0          
O        O      0.550000000000     0.283200000000     0.758800000000     0          
O        O      0.599980000000     0.255850000000     0.690050000000     0          
O        O      0.550000000000     0.208050000000     0.990750000000     0          
O        O      0.500000000000     0.196900000000     0.570050000000     0          
O        O      0.450000000000     0.213500000000     0.646500000000     0          
O        O      0.450000000000     0.247400000000     0.569650000000     0          
T        Si     0.550000000000     0.375000000000     0.571850000000     0          
T        Si     0.450000000000     0.375000000000     0.505550000000     0          
T        Si     0.550000000000     0.310700000000     0.613650000000     0          
T        Si     0.550000000000     0.274800000000     0.702850000000     0          
T        Si     0.550000000000     0.189000000000     0.539350000000     0          
T        Si     0.450000000000     0.235350000000     0.692000000000     0          
T        Si     0.450000000000     0.213800000000     0.588900000000     0          
T        Si     0.450000000000     0.282900000000     0.564950000000     0          
O        O      0.550000000000     0.345950000000     0.605200000000     0          
O        O      0.500000000000     0.375000000000     0.538700000000     0          
O        O      0.450000000000     0.404150000000     0.972400000000     0          
O        O      0.550000000000     0.445750000000     0.670350000000     0          
O        O      0.500000000000     0.453750000000     0.590150000000     0          
O        O      0.550000000000     0.466800000000     0.758800000000     0          
O        O      0.500020000000     0.494150000000     0.690050000000     0          
O        O      0.550000000000     0.041950000000     0.990750000000     0          
O        O      0.400000000000     0.053100000000     0.570050000000     0          
O        O      0.450000000000     0.036500000000     0.646500000000     0          
O        O      0.450000000000     0.002600000000     0.569650000000     0          
T        Si     0.550000000000     0.439300000000     0.613650000000     0          
T        Si     0.550000000000     0.475200000000     0.702850000000     0          
T        Si     0.550000000000     0.061000000000     0.539350000000     0          
T        Si     0.450000000000     0.014650000000     0.692000000000     0          
T        Si     0.450000000000     0.036200000000     0.588900000000     0          
T        Si     0.450000000000     0.467100000000     0.564950000000     0          
O        O      0.450000000000     0.095950000000     0.894800000000     0          
O        O      0.500000000000     0.125000000000     0.961300000000     0          
O        O      0.550000000000     0.154150000000     0.527600000000     0          
O        O      0.450000000000     0.195750000000     0.829650000000     0          
O        O      0.500000000000     0.203750000000     0.909850000000     0          
O        O      0.450000000000     0.216800000000     0.741200000000     0          
O        O      0.499980000000     0.244150000000     0.809950000000     0          
O        O      0.450000000000     0.291950000000     0.509250000000     0          
O        O      0.400000000000     0.303100000000     0.929950000000     0          
O        O      0.550000000000     0.286500000000     0.853500000000     0          
O        O      0.550000000000     0.252600000000     0.930350000000     0          
T        Si     0.450000000000     0.125000000000     0.928150000000     0          
T        Si     0.550000000000     0.125000000000     0.994450000000     0          
T        Si     0.450000000000     0.189300000000     0.886350000000     0          
T        Si     0.450000000000     0.225200000000     0.797150000000     0          
T        Si     0.450000000000     0.311000000000     0.960650000000     0          
T        Si     0.550000000000     0.264650000000     0.808000000000     0          
T        Si     0.550000000000     0.286200000000     0.911100000000     0          
T        Si     0.550000000000     0.217100000000     0.935050000000     0          
O        O      0.450000000000     0.154050000000     0.894800000000     0          
O        O      0.400000000000     0.125000000000     0.961300000000     0          
O        O      0.550000000000     0.095850000000     0.527600000000     0          
O        O      0.450000000000     0.054250000000     0.829650000000     0          
O        O      0.400000000000     0.046250000000     0.909850000000     0          
O        O      0.450000000000     0.033200000000     0.741200000000     0          
O        O      0.400020000000     0.005850000000     0.809950000000     0          
O        O      0.450000000000     0.458050000000     0.509250000000     0          
O        O      0.500000000000     0.446900000000     0.929950000000     0          
O        O      0.550000000000     0.463500000000     0.853500000000     0          
O        O      0.550000000000     0.497400000000     0.930350000000     0          
T        Si     0.450000000000     0.060700000000     0.886350000000     0          
T        Si     0.450000000000     0.024800000000     0.797150000000     0          
T        Si     0.450000000000     0.439000000000     0.960650000000     0          
T        Si     0.550000000000     0.485350000000     0.808000000000     0          
T        Si     0.550000000000     0.463800000000     0.911100000000     0          
T        Si     0.550000000000     0.032900000000     0.935050000000     0          
O        O      0.400000000000     0.203750000000     0.909850000000     0          
O        O      0.400020000000     0.244150000000     0.809950000000     0          
O        O      0.500000000000     0.303100000000     0.929950000000     0          
O        O      0.500000000000     0.046250000000     0.909850000000     0          
O        O      0.499980000000     0.005850000000     0.809950000000     0          
O        O      0.400000000000     0.446900000000     0.929950000000     0          
O        O      0.500000000000     0.296250000000     0.590150000000     0          
O        O      0.500020000000     0.255850000000     0.690050000000     0          
O        O      0.400000000000     0.196900000000     0.570050000000     0          
O        O      0.400000000000     0.453750000000     0.590150000000     0          
O        O      0.599980000000     0.494150000000     0.690050000000     0          
O        O      0.500000000000     0.053100000000     0.570050000000     0          
O        O      0.550000000000     0.904050000000     0.105200000000     0          
O        O      0.400000000000     0.875000000000     0.038700000000     0          
O        O      0.450000000000     0.845850000000     0.472400000000     0          
O        O      0.550000000000     0.804250000000     0.170350000000     0          
O        O      0.400000000000     0.796250000000     0.090150000000     0          
O        O      0.550000000000     0.783200000000     0.258800000000     0          
O        O      0.599980000000     0.755850000000     0.190050000000     0          
O        O      0.550000000000     0.708050000000     0.490750000000     0          
O        O      0.500000000000     0.696900000000     0.070050000000     0          
O        O      0.450000000000     0.713500000000     0.146500000000     0          
O        O      0.450000000000     0.747400000000     0.069650000000     0          
T        Si     0.550000000000     0.875000000000     0.071850000000     0          
T        Si     0.450000000000     0.875000000000     0.005550000000     0          
T        Si     0.550000000000     0.810700000000     0.113650000000     0          
T        Si     0.550000000000     0.774800000000     0.202850000000     0          
T        Si     0.550000000000     0.689000000000     0.039350000000     0          
T        Si     0.450000000000     0.735350000000     0.192000000000     0          
T        Si     0.450000000000     0.713800000000     0.088900000000     0          
T        Si     0.450000000000     0.782900000000     0.064950000000     0          
O        O      0.550000000000     0.845950000000     0.105200000000     0          
O        O      0.500000000000     0.875000000000     0.038700000000     0          
O        O      0.450000000000     0.904150000000     0.472400000000     0          
O        O      0.550000000000     0.945750000000     0.170350000000     0          
O        O      0.500000000000     0.953750000000     0.090150000000     0          
O        O      0.550000000000     0.966800000000     0.258800000000     0          
O        O      0.500020000000     0.994150000000     0.190050000000     0          
O        O      0.550000000000     0.541950000000     0.490750000000     0          
O        O      0.400000000000     0.553100000000     0.070050000000     0          
O        O      0.450000000000     0.536500000000     0.146500000000     0          
O        O      0.450000000000     0.502600000000     0.069650000000     0          
T        Si     0.550000000000     0.939300000000     0.113650000000     0          
T        Si     0.550000000000     0.975200000000     0.202850000000     0          
T        Si     0.550000000000     0.561000000000     0.039350000000     0          
T        Si     0.450000000000     0.514650000000     0.192000000000     0          
T        Si     0.450000000000     0.536200000000     0.088900000000     0          
T        Si     0.450000000000     0.967100000000     0.064950000000     0          
O        O      0.450000000000     0.595950000000     0.394800000000     0          
O        O      0.500000000000     0.625000000000     0.461300000000     0          
O        O      0.550000000000     0.654150000000     0.027600000000     0          
O        O      0.450000000000     0.695750000000     0.329650000000     0          
O        O      0.500000000000     0.703750000000     0.409850000000     0          
O        O      0.450000000000     0.716800000000     0.241200000000     0          
O        O      0.499980000000     0.744150000000     0.309950000000     0          
O        O      0.450000000000     0.791950000000     0.009250000000     0          
O        O      0.400000000000     0.803100000000     0.429950000000     0          
O        O      0.550000000000     0.786500000000     0.353500000000     0          
O        O      0.550000000000     0.752600000000     0.430350000000     0          
T        Si     0.450000000000     0.625000000000     0.428150000000     0          
T        Si     0.550000000000     0.625000000000     0.494450000000     0          
T        Si     0.450000000000     0.689300000000     0.386350000000     0          
T        Si     0.450000000000     0.725200000000     0.297150000000     0          
T        Si     0.450000000000     0.811000000000     0.460650000000     0          
T        Si     0.550000000000     0.764650000000     0.308000000000     0          
T        Si     0.550000000000     0.786200000000     0.411100000000     0          
T        Si     0.550000000000     0.717100000000     0.435050000000     0          
O        O      0.450000000000     0.654050000000     0.394800000000     0          
O        O      0.400000000000     0.625000000000     0.461300000000     0          
O        O      0.550000000000     0.595850000000     0.027600000000     0          
O        O      0.450000000000     0.554250000000     0.329650000000     0          
O        O      0.400000000000     0.546250000000     0.409850000000     0          
O        O      0.450000000000     0.533200000000     0.241200000000     0          
O        O      0.400020000000     0.505850000000     0.309950000000     0          
O        O      0.450000000000     0.958050000000     0.009250000000     0          
O        O      0.500000000000     0.946900000000     0.429950000000     0          
O        O      0.550000000000     0.963500000000     0.353500000000     0          
O        O      0.550000000000     0.997400000000     0.430350000000     0          
T        Si     0.450000000000     0.560700000000     0.386350000000     0          
T        Si     0.450000000000     0.524800000000     0.297150000000     0          
T        Si     0.450000000000     0.939000000000     0.460650000000     0          
T        Si     0.550000000000     0.985350000000     0.308000000000     0          
T        Si     0.550000000000     0.963800000000     0.411100000000     0          
T        Si     0.550000000000     0.532900000000     0.435050000000     0          
O        O      0.400000000000     0.703750000000     0.409850000000     0          
O        O      0.400020000000     0.744150000000     0.309950000000     0          
O        O      0.500000000000     0.803100000000     0.429950000000     0          
O        O      0.500000000000     0.546250000000     0.409850000000     0          
O        O      0.499980000000     0.505850000000     0.309950000000     0          
O        O      0.400000000000     0.946900000000     0.429950000000     0          
O        O      0.500000000000     0.796250000000     0.090150000000     0          
O        O      0.500020000000     0.755850000000     0.190050000000     0          
O        O      0.400000000000     0.696900000000     0.070050000000     0          
O        O      0.400000000000     0.953750000000     0.090150000000     0          
O        O      0.599980000000     0.994150000000     0.190050000000     0          
O        O      0.500000000000     0.553100000000     0.070050000000     0          
O        O      0.550000000000     0.904050000000     0.605200000000     0          
O        O      0.400000000000     0.875000000000     0.538700000000     0          
O        O      0.450000000000     0.845850000000     0.972400000000     0          
O        O      0.550000000000     0.804250000000     0.670350000000     0          
O        O      0.400000000000     0.796250000000     0.590150000000     0          
O        O      0.550000000000     0.783200000000     0.758800000000     0          
O        O      0.599980000000     0.755850000000     0.690050000000     0          
O        O      0.550000000000     0.708050000000     0.990750000000     0          
O        O      0.500000000000     0.696900000000     0.570050000000     0          
O        O      0.450000000000     0.713500000000     0.646500000000     0          
O        O      0.450000000000     0.747400000000     0.569650000000     0          
T        Si     0.550000000000     0.875000000000     0.571850000000     0          
T        Si     0.450000000000     0.875000000000     0.505550000000     0          
T        Si     0.550000000000     0.810700000000     0.613650000000     0          
T        Si     0.550000000000     0.774800000000     0.702850000000     0          
T        Si     0.550000000000     0.689000000000     0.539350000000     0          
T        Si     0.450000000000     0.735350000000     0.692000000000     0          
T        Si     0.450000000000     0.713800000000     0.588900000000     0          
T        Si     0.450000000000     0.782900000000     0.564950000000     0          
O        O      0.550000000000     0.845950000000     0.605200000000     0          
O        O      0.500000000000     0.875000000000     0.538700000000     0          
O        O      0.450000000000     0.904150000000     0.972400000000     0          
O        O      0.550000000000     0.945750000000     0.670350000000     0          
O        O      0.500000000000     0.953750000000     0.590150000000     0          
O        O      0.550000000000     0.966800000000     0.758800000000     0          
O        O      0.500020000000     0.994150000000     0.690050000000     0          
O        O      0.550000000000     0.541950000000     0.990750000000     0          
O        O      0.400000000000     0.553100000000     0.570050000000     0          
O        O      0.450000000000     0.536500000000     0.646500000000     0          
O        O      0.450000000000     0.502600000000     0.569650000000     0          
T        Si     0.550000000000     0.939300000000     0.613650000000     0          
T        Si     0.550000000000     0.975200000000     0.702850000000     0          
T        Si     0.550000000000     0.561000000000     0.539350000000     0          
T        Si     0.450000000000     0.514650000000     0.692000000000     0          
T        Si     0.450000000000     0.536200000000     0.588900000000     0          
T        Si     0.450000000000     0.967100000000     0.564950000000     0          
O        O      0.450000000000     0.595950000000     0.894800000000     0          
O        O      0.500000000000     0.625000000000     0.961300000000     0          
O        O      0.550000000000     0.654150000000     0.527600000000     0          
O        O      0.450000000000     0.695750000000     0.829650000000     0          
O        O      0.500000000000     0.703750000000     0.909850000000     0          
O        O      0.450000000000     0.716800000000     0.741200000000     0          
O        O      0.499980000000     0.744150000000     0.809950000000     0          
O        O      0.450000000000     0.791950000000     0.509250000000     0          
O        O      0.400000000000     0.803100000000     0.929950000000     0          
O        O      0.550000000000     0.786500000000     0.853500000000     0          
O        O      0.550000000000     0.752600000000     0.930350000000     0          
T        Si     0.450000000000     0.625000000000     0.928150000000     0          
T        Si     0.550000000000     0.625000000000     0.994450000000     0          
T        Si     0.450000000000     0.689300000000     0.886350000000     0          
T        Si     0.450000000000     0.725200000000     0.797150000000     0          
T        Si     0.450000000000     0.811000000000     0.960650000000     0          
T        Si     0.550000000000     0.764650000000     0.808000000000     0          
T        Si     0.550000000000     0.786200000000     0.911100000000     0          
T        Si     0.550000000000     0.717100000000     0.935050000000     0          
O        O      0.450000000000     0.654050000000     0.894800000000     0          
O        O      0.400000000000     0.625000000000     0.961300000000     0          
O        O      0.550000000000     0.595850000000     0.527600000000     0          
O        O      0.450000000000     0.554250000000     0.829650000000     0          
O        O      0.400000000000     0.546250000000     0.909850000000     0          
O        O      0.450000000000     0.533200000000     0.741200000000     0          
O        O      0.400020000000     0.505850000000     0.809950000000     0          
O        O      0.450000000000     0.958050000000     0.509250000000     0          
O        O      0.500000000000     0.946900000000     0.929950000000     0          
O        O      0.550000000000     0.963500000000     0.853500000000     0          
O        O      0.550000000000     0.997400000000     0.930350000000     0          
T        Si     0.450000000000     0.560700000000     0.886350000000     0          
T        Si     0.450000000000     0.524800000000     0.797150000000     0          
T        Si     0.450000000000     0.939000000000     0.960650000000     0          
T        Si     0.550000000000     0.985350000000     0.808000000000     0          
T        Si     0.550000000000     0.963800000000     0.911100000000     0          
T        Si     0.550000000000     0.532900000000     0.935050000000     0          
O        O      0.400000000000     0.703750000000     0.909850000000     0          
O        O      0.400020000000     0.744150000000     0.809950000000     0          
O        O      0.500000000000     0.803100000000     0.929950000000     0          
O        O      0.500000000000     0.546250000000     0.909850000000     0          
O        O      0.499980000000     0.505850000000     0.809950000000     0          
O        O      0.400000000000     0.946900000000     0.929950000000     0          
O        O      0.500000000000     0.796250000000     0.590150000000     0          
O        O      0.500020000000     0.755850000000     0.690050000000     0          
O        O      0.400000000000     0.696900000000     0.570050000000     0          
O        O      0.400000000000     0.953750000000     0.590150000000     0          
O        O      0.599980000000     0.994150000000     0.690050000000     0          
O        O      0.500000000000     0.553100000000     0.570050000000     0          
O        O      0.750000000000     0.404050000000     0.105200000000     0          
O        O      0.600000000000     0.375000000000     0.038700000000     0          
O        O      0.650000000000     0.345850000000     0.472400000000     0          
O        O      0.750000000000     0.304250000000     0.170350000000     0          
O        O      0.600000000000     0.296250000000     0.090150000000     0          
O        O      0.750000000000     0.283200000000     0.258800000000     0          
O        O      0.799980000000     0.255850000000     0.190050000000     0          
O        O      0.750000000000     0.208050000000     0.490750000000     0          
O        O      0.700000000000     0.196900000000     0.070050000000     0          
O        O      0.650000000000     0.213500000000     0.146500000000     0          
O        O      0.650000000000     0.247400000000     0.069650000000     0          
T        Si     0.750000000000     0.375000000000     0.071850000000     0          
T        Si     0.650000000000     0.375000000000     0.005550000000     0          
T        Si     0.750000000000     0.310700000000     0.113650000000     0          
T        Si     0.750000000000     0.274800000000     0.202850000000     0          
T        Si     0.750000000000     0.189000000000     0.039350000000     0          
T        Si     0.650000000000     0.235350000000     0.192000000000     0          
T        Si     0.650000000000     0.213800000000     0.088900000000     0          
T        Si     0.650000000000     0.282900000000     0.064950000000     0          
O        O      0.750000000000     0.345950000000     0.105200000000     0          
O        O      0.700000000000     0.375000000000     0.038700000000     0          
O        O      0.650000000000     0.404150000000     0.472400000000     0          
O        O      0.750000000000     0.445750000000     0.170350000000     0          
O        O      0.700000000000     0.453750000000     0.090150000000     0          
O        O      0.750000000000     0.466800000000     0.258800000000     0          
O        O      0.700020000000     0.494150000000     0.190050000000     0          
O        O      0.750000000000     0.041950000000     0.490750000000     0          
O        O      0.600000000000     0.053100000000     0.070050000000     0          
O        O      0.650000000000     0.036500000000     0.146500000000     0          
O        O      0.650000000000     0.002600000000     0.069650000000     0          
T        Si     0.750000000000     0.439300000000     0.113650000000     0          
T        Si     0.750000000000     0.475200000000     0.202850000000     0          
T        Si     0.750000000000     0.061000000000     0.039350000000     0          
T        Si     0.650000000000     0.014650000000     0.192000000000     0          
T        Si     0.650000000000     0.036200000000     0.088900000000     0          
T        Si     0.650000000000     0.467100000000     0.064950000000     0          
O        O      0.650000000000     0.095950000000     0.394800000000     0          
O        O      0.700000000000     0.125000000000     0.461300000000     0          
O        O      0.750000000000     0.154150000000     0.027600000000     0          
O        O      0.650000000000     0.195750000000     0.329650000000     0          
O        O      0.700000000000     0.203750000000     0.409850000000     0          
O        O      0.650000000000     0.216800000000     0.241200000000     0          
O        O      0.699980000000     0.244150000000     0.309950000000     0          
O        O      0.650000000000     0.291950000000     0.009250000000     0          
O        O      0.600000000000     0.303100000000     0.429950000000     0          
O        O      0.750000000000     0.286500000000     0.353500000000     0          
O        O      0.750000000000     0.252600000000     0.430350000000     0          
T        Si     0.650000000000     0.125000000000     0.428150000000     0          
T        Si     0.750000000000     0.125000000000     0.494450000000     0          
T        Si     0.650000000000     0.189300000000     0.386350000000     0          
T        Si     0.650000000000     0.225200000000     0.297150000000     0          
T        Si     0.650000000000     0.311000000000     0.460650000000     0          
T        Si     0.750000000000     0.264650000000     0.308000000000     0          
T        Si     0.750000000000     0.286200000000     0.411100000000     0          
T        Si     0.750000000000     0.217100000000     0.435050000000     0          
O        O      0.650000000000     0.154050000000     0.394800000000     0          
O        O      0.600000000000     0.125000000000     0.461300000000     0          
O        O      0.750000000000     0.095850000000     0.027600000000     0          
O        O      0.650000000000     0.054250000000     0.329650000000     0          
O        O      0.600000000000     0.046250000000     0.409850000000     0          
O        O      0.650000000000     0.033200000000     0.241200000000     0          
O        O      0.600020000000     0.005850000000     0.309950000000     0          
O        O      0.650000000000     0.458050000000     0.009250000000     0          
O        O      0.700000000000     0.446900000000     0.429950000000     0          
O        O      0.750000000000     0.463500000000     0.353500000000     0          
O        O      0.750000000000     0.497400000000     0.430350000000     0          
T        Si     0.650000000000     0.060700000000     0.386350000000     0          
T        Si     0.650000000000     0.024800000000     0.297150000000     0          
T        Si     0.650000000000     0.439000000000     0.460650000000     0          
T        Si     0.750000000000     0.485350000000     0.308000000000     0          
T        Si     0.750000000000     0.463800000000     0.411100000000     0          
T        Si     0.750000000000     0.032900000000     0.435050000000     0          
O        O      0.600000000000     0.203750000000     0.409850000000     0          
O        O      0.600020000000     0.244150000000     0.309950000000     0          
O        O      0.700000000000     0.303100000000     0.429950000000     0          
O        O      0.700000000000     0.046250000000     0.409850000000     0          
O        O      0.699980000000     0.005850000000     0.309950000000     0          
O        O      0.600000000000     0.446900000000     0.429950000000     0          
O        O      0.700000000000     0.296250000000     0.090150000000     0          
O        O      0.700020000000     0.255850000000     0.190050000000     0          
O        O      0.600000000000     0.196900000000     0.070050000000     0          
O        O      0.600000000000     0.453750000000     0.090150000000     0          
O        O      0.799980000000     0.494150000000     0.190050000000     0          
O        O      0.700000000000     0.053100000000     0.070050000000     0          
O        O      0.750000000000     0.404050000000     0.605200000000     0          
O        O      0.600000000000     0.375000000000     0.538700000000     0          
O        O      0.650000000000     0.345850000000     0.972400000000     0          
O        O      0.750000000000     0.304250000000     0.670350000000     0          
O        O      0.600000000000     0.296250000000     0.590150000000     0          
O        O      0.750000000000     0.283200000000     0.758800000000     0          
O        O      0.799980000000     0.255850000000     0.690050000000     0          
O        O      0.750000000000     0.208050000000     0.990750000000     0          
O        O      0.700000000000     0.196900000000     0.570050000000     0          
O        O      0.650000000000     0.213500000000     0.646500000000     0          
O        O      0.650000000000     0.247400000000     0.569650000000     0          
T        Si     0.750000000000     0.375000000000     0.571850000000     0          
T        Si     0.650000000000     0.375000000000     0.505550000000     0          
T        Si     0.750000000000     0.310700000000     0.613650000000     0          
T        Si     0.750000000000     0.274800000000     0.702850000000     0          
T        Si     0.750000000000     0.189000000000     0.539350000000     0          
T        Si     0.650000000000     0.235350000000     0.692000000000     0          
T        Si     0.650000000000     0.213800000000     0.588900000000     0          
T        Si     0.650000000000     0.282900000000     0.564950000000     0          
O        O      0.750000000000     0.345950000000     0.605200000000     0          
O        O      0.700000000000     0.375000000000     0.538700000000     0          
O        O      0.650000000000     0.404150000000     0.972400000000     0          
O        O      0.750000000000     0.445750000000     0.670350000000     0          
O        O      0.700000000000     0.453750000000     0.590150000000     0          
O        O      0.750000000000     0.466800000000     0.758800000000     0          
O        O      0.700020000000     0.494150000000     0.690050000000     0          
O        O      0.750000000000     0.041950000000     0.990750000000     0          
O        O      0.600000000000     0.053100000000     0.570050000000     0          
O        O      0.650000000000     0.036500000000     0.646500000000     0          
O        O      0.650000000000     0.002600000000     0.569650000000     0          
T        Si     0.750000000000     0.439300000000     0.613650000000     0          
T        Si     0.750000000000     0.475200000000     0.702850000000     0          
T        Si     0.750000000000     0.061000000000     0.539350000000     0          
T        Si     0.650000000000     0.014650000000     0.692000000000     0          
T        Si     0.650000000000     0.036200000000     0.588900000000     0          
T        Si     0.650000000000     0.467100000000     0.564950000000     0          
O        O      0.650000000000     0.095950000000     0.894800000000     0          
O        O      0.700000000000     0.125000000000     0.961300000000     0          
O        O      0.750000000000     0.154150000000     0.527600000000     0          
O        O      0.650000000000     0.195750000000     0.829650000000     0          
O        O      0.700000000000     0.203750000000     0.909850000000     0          
O        O      0.650000000000     0.216800000000     0.741200000000     0          
O        O      0.699980000000     0.244150000000     0.809950000000     0          
O        O      0.650000000000     0.291950000000     0.509250000000     0          
O        O      0.600000000000     0.303100000000     0.929950000000     0          
O        O      0.750000000000     0.286500000000     0.853500000000     0          
O        O      0.750000000000     0.252600000000     0.930350000000     0          
T        Si     0.650000000000     0.125000000000     0.928150000000     0          
T        Si     0.750000000000     0.125000000000     0.994450000000     0          
T        Si     0.650000000000     0.189300000000     0.886350000000     0          
T        Si     0.650000000000     0.225200000000     0.797150000000     0          
T        Si     0.650000000000     0.311000000000     0.960650000000     0          
T        Si     0.750000000000     0.264650000000     0.808000000000     0          
T        Si     0.750000000000     0.286200000000     0.911100000000     0          
T        Si     0.750000000000     0.217100000000     0.935050000000     0          
O        O      0.650000000000     0.154050000000     0.894800000000     0          
O        O      0.600000000000     0.125000000000     0.961300000000     0          
O        O      0.750000000000     0.095850000000     0.527600000000     0          
O        O      0.650000000000     0.054250000000     0.829650000000     0          
O        O      0.600000000000     0.046250000000     0.909850000000     0          
O        O      0.650000000000     0.033200000000     0.741200000000     0          
O        O      0.600020000000     0.005850000000     0.809950000000     0          
O        O      0.650000000000     0.458050000000     0.509250000000     0          
O        O      0.700000000000     0.446900000000     0.929950000000     0          
O        O      0.750000000000     0.463500000000     0.853500000000     0          
O        O      0.750000000000     0.497400000000     0.930350000000     0          
T        Si     0.650000000000     0.060700000000     0.886350000000     0          
T        Si     0.650000000000     0.024800000000     0.797150000000     0          
T        Si     0.650000000000     0.439000000000     0.960650000000     0          
T        Si     0.750000000000     0.485350000000     0.808000000000     0          
T        Si     0.750000000000     0.463800000000     0.911100000000     0          
T        Si     0.750000000000     0.032900000000     0.935050000000     0          
O        O      0.600000000000     0.203750000000     0.909850000000     0          
O        O      0.600020000000     0.244150000000     0.809950000000     0          
O        O      0.700000000000     0.303100000000     0.929950000000     0          
O        O      0.700000000000     0.046250000000     0.909850000000     0          
O        O      0.699980000000     0.005850000000     0.809950000000     0          
O        O      0.600000000000     0.446900000000     0.929950000000     0          
O        O      0.700000000000     0.296250000000     0.590150000000     0          
O        O      0.700020000000     0.255850000000     0.690050000000     0          
O        O      0.600000000000     0.196900000000     0.570050000000     0          
O        O      0.600000000000     0.453750000000     0.590150000000     0          
O        O      0.799980000000     0.494150000000     0.690050000000     0          
O        O      0.700000000000     0.053100000000     0.570050000000     0          
O        O      0.750000000000     0.904050000000     0.105200000000     0          
O        O      0.600000000000     0.875000000000     0.038700000000     0          
O        O      0.650000000000     0.845850000000     0.472400000000     0          
O        O      0.750000000000     0.804250000000     0.170350000000     0          
O        O      0.600000000000     0.796250000000     0.090150000000     0          
O        O      0.750000000000     0.783200000000     0.258800000000     0          
O        O      0.799980000000     0.755850000000     0.190050000000     0          
O        O      0.750000000000     0.708050000000     0.490750000000     0          
O        O      0.700000000000     0.696900000000     0.070050000000     0          
O        O      0.650000000000     0.713500000000     0.146500000000     0          
O        O      0.650000000000     0.747400000000     0.069650000000     0          
T        Si     0.750000000000     0.875000000000     0.071850000000     0          
T        Si     0.650000000000     0.875000000000     0.005550000000     0          
T        Si     0.750000000000     0.810700000000     0.113650000000     0          
T        Si     0.750000000000     0.774800000000     0.202850000000     0          
T        Si     0.750000000000     0.689000000000     0.039350000000     0          
T        Si     0.650000000000     0.735350000000     0.192000000000     0          
T        Si     0.650000000000     0.713800000000     0.088900000000     0          
T        Si     0.650000000000     0.782900000000     0.064950000000     0          
O        O      0.750000000000     0.845950000000     0.105200000000     0          
O        O      0.700000000000     0.875000000000     0.038700000000     0          
O        O      0.650000000000     0.904150000000     0.472400000000     0          
O        O      0.750000000000     0.945750000000     0.170350000000     0          
O        O      0.700000000000     0.953750000000     0.090150000000     0          
O        O      0.750000000000     0.966800000000     0.258800000000     0          
O        O      0.700020000000     0.994150000000     0.190050000000     0          
O        O      0.750000000000     0.541950000000     0.490750000000     0          
O        O      0.600000000000     0.553100000000     0.070050000000     0          
O        O      0.650000000000     0.536500000000     0.146500000000     0          
O        O      0.650000000000     0.502600000000     0.069650000000     0          
T        Si     0.750000000000     0.939300000000     0.113650000000     0          
T        Si     0.750000000000     0.975200000000     0.202850000000     0          
T        Si     0.750000000000     0.561000000000     0.039350000000     0          
T        Si     0.650000000000     0.514650000000     0.192000000000     0          
T        Si     0.650000000000     0.536200000000     0.088900000000     0          
T        Si     0.650000000000     0.967100000000     0.064950000000     0          
O        O      0.650000000000     0.595950000000     0.394800000000     0          
O        O      0.700000000000     0.625000000000     0.461300000000     0          
O        O      0.750000000000     0.654150000000     0.027600000000     0          
O        O      0.650000000000     0.695750000000     0.329650000000     0          
O        O      0.700000000000     0.703750000000     0.409850000000     0          
O        O      0.650000000000     0.716800000000     0.241200000000     0          
O        O      0.699980000000     0.744150000000     0.309950000000     0          
O        O      0.650000000000     0.791950000000     0.009250000000     0          
O        O      0.600000000000     0.803100000000     0.429950000000     0          
O        O      0.750000000000     0.786500000000     0.353500000000     0          
O        O      0.750000000000     0.752600000000     0.430350000000     0          
T        Si     0.650000000000     0.625000000000     0.428150000000     0          
T        Si     0.750000000000     0.625000000000     0.494450000000     0          
T        Si     0.650000000000     0.689300000000     0.386350000000     0          
T        Si     0.650000000000     0.725200000000     0.297150000000     0          
T        Si     0.650000000000     0.811000000000     0.460650000000     0          
T        Si     0.750000000000     0.764650000000     0.308000000000     0          
T        Si     0.750000000000     0.786200000000     0.411100000000     0          
T        Si     0.750000000000     0.717100000000     0.435050000000     0          
O        O      0.650000000000     0.654050000000     0.394800000000     0          
O        O      0.600000000000     0.625000000000     0.461300000000     0          
O        O      0.750000000000     0.595850000000     0.027600000000     0          
O        O      0.650000000000     0.554250000000     0.329650000000     0          
O        O      0.600000000000     0.546250000000     0.409850000000     0          
O        O      0.650000000000     0.533200000000     0.241200000000     0          
O        O      0.600020000000     0.505850000000     0.309950000000     0          
O        O      0.650000000000     0.958050000000     0.009250000000     0          
O        O      0.700000000000     0.946900000000     0.429950000000     0          
O        O      0.750000000000     0.963500000000     0.353500000000     0          
O        O      0.750000000000     0.997400000000     0.430350000000     0          
T        Si     0.650000000000     0.560700000000     0.386350000000     0          
T        Si     0.650000000000     0.524800000000     0.297150000000     0          
T        Si     0.650000000000     0.939000000000     0.460650000000     0          
T        Si     0.750000000000     0.985350000000     0.308000000000     0          
T        Si     0.750000000000     0.963800000000     0.411100000000     0          
T        Si     0.750000000000     0.532900000000     0.435050000000     0          
O        O      0.600000000000     0.703750000000     0.409850000000     0          
O        O      0.600020000000     0.744150000000     0.309950000000     0          
O        O      0.700000000000     0.803100000000     0.429950000000     0          
O        O      0.700000000000     0.546250000000     0.409850000000     0          
O        O      0.699980000000     0.505850000000     0.309950000000     0          
O        O      0.600000000000     0.946900000000     0.429950000000     0          
O        O      0.700000000000     0.796250000000     0.090150000000     0          
O        O      0.700020000000     0.755850000000     0.190050000000     0          
O        O      0.600000000000     0.696900000000     0.070050000000     0          
O        O      0.600000000000     0.953750000000     0.090150000000     0          
O        O      0.799980000000     0.994150000000     0.190050000000     0          
O        O      0.700000000000     0.553100000000     0.070050000000     0          
O        O      0.750000000000     0.904050000000     0.605200000000     0          
O        O      0.600000000000     0.875000000000     0.538700000000     0          
O        O      0.650000000000     0.845850000000     0.972400000000     0          
O        O      0.750000000000     0.804250000000     0.670350000000     0          
O        O      0.600000000000     0.796250000000     0.590150000000     0          
O        O      0.750000000000     0.783200000000     0.758800000000     0          
O        O      0.799980000000     0.755850000000     0.690050000000     0          
O        O      0.750000000000     0.708050000000     0.990750000000     0          
O        O      0.700000000000     0.696900000000     0.570050000000     0          
O        O      0.650000000000     0.713500000000     0.646500000000     0          
O        O      0.650000000000     0.747400000000     0.569650000000     0          
T        Si     0.750000000000     0.875000000000     0.571850000000     0          
T        Si     0.650000000000     0.875000000000     0.505550000000     0          
T        Si     0.750000000000     0.810700000000     0.613650000000     0          
T        Si     0.750000000000     0.774800000000     0.702850000000     0          
T        Si     0.750000000000     0.689000000000     0.539350000000     0          
T        Si     0.650000000000     0.735350000000     0.692000000000     0          
T        Si     0.650000000000     0.713800000000     0.588900000000     0          
T        Si     0.650000000000     0.782900000000     0.564950000000     0          
O        O      0.750000000000     0.845950000000     0.605200000000     0          
O        O      0.700000000000     0.875000000000     0.538700000000     0          
O        O      0.650000000000     0.904150000000     0.972400000000     0          
O        O      0.750000000000     0.945750000000     0.670350000000     0          
O        O      0.700000000000     0.953750000000     0.590150000000     0          
O        O      0.750000000000     0.966800000000     0.758800000000     0          
O        O      0.700020000000     0.994150000000     0.690050000000     0          
O        O      0.750000000000     0.541950000000     0.990750000000     0          
O        O      0.600000000000     0.553100000000     0.570050000000     0          
O        O      0.650000000000     0.536500000000     0.646500000000     0          
O        O      0.650000000000     0.502600000000     0.569650000000     0          
T        Si     0.750000000000     0.939300000000     0.613650000000     0          
T        Si     0.750000000000     0.975200000000     0.702850000000     0          
T        Si     0.750000000000     0.561000000000     0.539350000000     0          
T        Si     0.650000000000     0.514650000000     0.692000000000     0          
T        Si     0.650000000000     0.536200000000     0.588900000000     0          
T        Si     0.650000000000     0.967100000000     0.564950000000     0          
O        O      0.650000000000     0.595950000000     0.894800000000     0          
O        O      0.700000000000     0.625000000000     0.961300000000     0          
O        O      0.750000000000     0.654150000000     0.527600000000     0          
O        O      0.650000000000     0.695750000000     0.829650000000     0          
O        O      0.700000000000     0.703750000000     0.909850000000     0          
O        O      0.650000000000     0.716800000000     0.741200000000     0          
O        O      0.699980000000     0.744150000000     0.809950000000     0          
O        O      0.650000000000     0.791950000000     0.509250000000     0          
O        O      0.600000000000     0.803100000000     0.929950000000     0          
O        O      0.750000000000     0.786500000000     0.853500000000     0          
O        O      0.750000000000     0.752600000000     0.930350000000     0          
T        Si     0.650000000000     0.625000000000     0.928150000000     0          
T        Si     0.750000000000     0.625000000000     0.994450000000     0          
T        Si     0.650000000000     0.689300000000     0.886350000000     0          
T        Si     0.650000000000     0.725200000000     0.797150000000     0          
T        Si     0.650000000000     0.811000000000     0.960650000000     0          
T        Si     0.750000000000     0.764650000000     0.808000000000     0          
T        Si     0.750000000000     0.786200000000     0.911100000000     0          
T        Si     0.750000000000     0.717100000000     0.935050000000     0          
O        O      0.650000000000     0.654050000000     0.894800000000     0          
O        O      0.600000000000     0.625000000000     0.961300000000     0          
O        O      0.750000000000     0.595850000000     0.527600000000     0          
O        O      0.650000000000     0.554250000000     0.829650000000     0          
O        O      0.600000000000     0.546250000000     0.909850000000     0          
O        O      0.650000000000     0.533200000000     0.741200000000     0          
O        O      0.600020000000     0.505850000000     0.809950000000     0          
O        O      0.650000000000     0.958050000000     0.509250000000     0          
O        O      0.700000000000     0.946900000000     0.929950000000     0          
O        O      0.750000000000     0.963500000000     0.853500000000     0          
O        O      0.750000000000     0.997400000000     0.930350000000     0          
T        Si     0.650000000000     0.560700000000     0.886350000000     0          
T        Si     0.650000000000     0.524800000000     0.797150000000     0          
T        Si     0.650000000000     0.939000000000     0.960650000000     0          
T        Si     0.750000000000     0.985350000000     0.808000000000     0          
T        Si     0.750000000000     0.963800000000     0.911100000000     0          
T        Si     0.750000000000     0.532900000000     0.935050000000     0          
O        O      0.600000000000     0.703750000000     0.909850000000     0          
O        O      0.600020000000     0.744150000000     0.809950000000     0          
O        O      0.700000000000     0.803100000000     0.929950000000     0          
O        O      0.700000000000     0.546250000000     0.909850000000     0          
O        O      0.699980000000     0.505850000000     0.809950000000     0          
O        O      0.600000000000     0.946900000000     0.929950000000     0          
O        O      0.700000000000     0.796250000000     0.590150000000     0          
O        O      0.700020000000     0.755850000000     0.690050000000     0          
O        O      0.600000000000     0.696900000000     0.570050000000     0          
O        O      0.600000000000     0.953750000000     0.590150000000     0          
O        O      0.799980000000     0.994150000000     0.690050000000     0          
O        O      0.700000000000     0.553100000000     0.570050000000     0          
O        O      0.950000000000     0.404050000000     0.105200000000     0          
O        O      0.800000000000     0.375000000000     0.038700000000     0          
O        O      0.850000000000     0.345850000000     0.472400000000     0          
O        O      0.950000000000     0.304250000000     0.170350000000     0          
O        O      0.800000000000     0.296250000000     0.090150000000     0          
O        O      0.950000000000     0.283200000000     0.258800000000     0          
O        O      0.999980000000     0.255850000000     0.190050000000     0          
O        O      0.950000000000     0.208050000000     0.490750000000     0          
O        O      0.900000000000     0.196900000000     0.070050000000     0          
O        O      0.850000000000     0.213500000000     0.146500000000     0          
O        O      0.850000000000     0.247400000000     0.069650000000     0          
T        Si     0.950000000000     0.375000000000     0.071850000000     0          
T        Si     0.850000000000     0.375000000000     0.005550000000     0          
T        Si     0.950000000000     0.310700000000     0.113650000000     0          
T        Si     0.950000000000     0.274800000000     0.202850000000     0          
T        Si     0.950000000000     0.189000000000     0.039350000000     0          
T        Si     0.850000000000     0.235350000000     0.192000000000     0          
T        Si     0.850000000000     0.213800000000     0.088900000000     0          
T        Si     0.850000000000     0.282900000000     0.064950000000     0          
O        O      0.950000000000     0.345950000000     0.105200000000     0          
O        O      0.900000000000     0.375000000000     0.038700000000     0          
O        O      0.850000000000     0.404150000000     0.472400000000     0          
O        O      0.950000000000     0.445750000000     0.170350000000     0          
O        O      0.900000000000     0.453750000000     0.090150000000     0          
O        O      0.950000000000     0.466800000000     0.258800000000     0          
O        O      0.900020000000     0.494150000000     0.190050000000     0          
O        O      0.950000000000     0.041950000000     0.490750000000     0          
O        O      0.800000000000     0.053100000000     0.070050000000     0          
O        O      0.850000000000     0.036500000000     0.146500000000     0          
O        O      0.850000000000     0.002600000000     0.069650000000     0          
T        Si     0.950000000000     0.439300000000     0.113650000000     0          
T        Si     0.950000000000     0.475200000000     0.202850000000     0          
T        Si     0.950000000000     0.061000000000     0.039350000000     0          
T        Si     0.850000000000     0.014650000000     0.192000000000     0          
T        Si     0.850000000000     0.036200000000     0.088900000000     0          
T        Si     0.850000000000     0.467100000000     0.064950000000     0          
O        O      0.850000000000     0.095950000000     0.394800000000     0          
O        O      0.900000000000     0.125000000000     0.461300000000     0          
O        O      0.950000000000     0.154150000000     0.027600000000     0          
O        O      0.850000000000     0.195750000000     0.329650000000     0          
O        O      0.900000000000     0.203750000000     0.409850000000     0          
O        O      0.850000000000     0.216800000000     0.241200000000     0          
O        O      0.899980000000     0.244150000000     0.309950000000     0          
O        O      0.850000000000     0.291950000000     0.009250000000     0          
O        O      0.800000000000     0.303100000000     0.429950000000     0          
O        O      0.950000000000     0.286500000000     0.353500000000     0          
O        O      0.950000000000     0.252600000000     0.430350000000     0          
T        Si     0.850000000000     0.125000000000     0.428150000000     0          
T        Si     0.950000000000     0.125000000000     0.494450000000     0          
T        Si     0.850000000000     0.189300000000     0.386350000000     0          
T        Si     0.850000000000     0.225200000000     0.297150000000     0          
T        Si     0.850000000000     0.311000000000     0.460650000000     0          
T        Si     0.950000000000     0.264650000000     0.308000000000     0          
T        Si     0.950000000000     0.286200000000     0.411100000000     0          
T        Si     0.950000000000     0.217100000000     0.435050000000     0          
O        O      0.850000000000     0.154050000000     0.394800000000     0          
O        O      0.800000000000     0.125000000000     0.461300000000     0          
O        O      0.950000000000     0.095850000000     0.027600000000     0          
O        O      0.850000000000     0.054250000000     0.329650000000     0          
O        O      0.800000000000     0.046250000000     0.409850000000     0          
O        O      0.850000000000     0.033200000000     0.241200000000     0          
O        O      0.800020000000     0.005850000000     0.309950000000     0          
O        O      0.850000000000     0.458050000000     0.009250000000     0          
O        O      0.900000000000     0.446900000000     0.429950000000     0          
O        O      0.950000000000     0.463500000000     0.353500000000     0          
O        O      0.950000000000     0.497400000000     0.430350000000     0          
T        Si     0.850000000000     0.060700000000     0.386350000000     0          
T        Si     0.850000000000     0.024800000000     0.297150000000     0          
T        Si     0.850000000000     0.439000000000     0.460650000000     0          
T        Si     0.950000000000     0.485350000000     0.308000000000     0          
T        Si     0.950000000000     0.463800000000     0.411100000000     0          
T        Si     0.950000000000     0.032900000000     0.435050000000     0          
O        O      0.800000000000     0.203750000000     0.409850000000     0          
O        O      0.800020000000     0.244150000000     0.309950000000     0          
O        O      0.900000000000     0.303100000000     0.429950000000     0          
O        O      0.900000000000     0.046250000000     0.409850000000     0          
O        O      0.899980000000     0.005850000000     0.309950000000     0          
O        O      0.800000000000     0.446900000000     0.429950000000     0          
O        O      0.900000000000     0.296250000000     0.090150000000     0          
O        O      0.900020000000     0.255850000000     0.190050000000     0          
O        O      0.800000000000     0.196900000000     0.070050000000     0          
O        O      0.800000000000     0.453750000000     0.090150000000     0          
O        O      0.999980000000     0.494150000000     0.190050000000     0          
O        O      0.900000000000     0.053100000000     0.070050000000     0          
O        O      0.950000000000     0.404050000000     0.605200000000     0          
O        O      0.800000000000     0.375000000000     0.538700000000     0          
O        O      0.850000000000     0.345850000000     0.972400000000     0          
O        O      0.950000000000     0.304250000000     0.670350000000     0          
O        O      0.800000000000     0.296250000000     0.590150000000     0          
O        O      0.950000000000     0.283200000000     0.758800000000     0          
O        O      0.999980000000     0.255850000000     0.690050000000     0          
O        O      0.950000000000     0.208050000000     0.990750000000     0          
O        O      0.900000000000     0.196900000000     0.570050000000     0          
O        O      0.850000000000     0.213500000000     0.646500000000     0          
O        O      0.850000000000     0.247400000000     0.569650000000     0          
T        Si     0.950000000000     0.375000000000     0.571850000000     0          
T        Si     0.850000000000     0.375000000000     0.505550000000     0          
T        Si     0.950000000000     0.310700000000     0.613650000000     0          
T        Si     0.950000000000     0.274800000000     0.702850000000     0          
T        Si     0.950000000000     0.189000000000     0.539350000000     0          
T        Si     0.850000000000     0.235350000000     0.692000000000     0          
T        Si     0.850000000000     0.213800000000     0.588900000000     0          
T        Si     0.850000000000     0.282900000000     0.564950000000     0          
O        O      0.950000000000     0.345950000000     0.605200000000     0          
O        O      0.900000000000     0.375000000000     0.538700000000     0          
O        O      0.850000000000     0.404150000000     0.972400000000     0          
O        O      0.950000000000     0.445750000000     0.670350000000     0          
O        O      0.900000000000     0.453750000000     0.590150000000     0          
O        O      0.950000000000     0.466800000000     0.758800000000     0          
O        O      0.900020000000     0.494150000000     0.690050000000     0          
O        O      0.950000000000     0.041950000000     0.990750000000     0          
O        O      0.800000000000     0.053100000000     0.570050000000     0          
O        O      0.850000000000     0.036500000000     0.646500000000     0          
O        O      0.850000000000     0.002600000000     0.569650000000     0          
T        Si     0.950000000000     0.439300000000     0.613650000000     0          
T        Si     0.950000000000     0.475200000000     0.702850000000     0          
T        Si     0.950000000000     0.061000000000     0.539350000000     0          
T        Si     0.850000000000     0.014650000000     0.692000000000     0          
T        Si     0.850000000000     0.036200000000     0.588900000000     0          
T        Si     0.850000000000     0.467100000000     0.564950000000     0          
O        O      0.850000000000     0.095950000000     0.894800000000     0          
O        O      0.900000000000     0.125000000000     0.961300000000     0          
O        O      0.950000000000     0.154150000000     0.527600000000     0          
O        O      0.850000000000     0.195750000000     0.829650000000     0          
O        O      0.900000000000     0.203750000000     0.909850000000     0          
O        O      0.850000000000     0.216800000000     0.741200000000     0          
O        O      0.899980000000     0.244150000000     0.809950000000     0          
O        O      0.850000000000     0.291950000000     0.509250000000     0          
O        O      0.800000000000     0.303100000000     0.929950000000     0          
O        O      0.950000000000     0.286500000000     0.853500000000     0          
O        O      0.950000000000     0.252600000000     0.930350000000     0          
T        Si     0.850000000000     0.125000000000     0.928150000000     0          
T        Si     0.950000000000     0.125000000000     0.994450000000     0          
T        Si     0.850000000000     0.189300000000     0.886350000000     0          
T        Si     0.850000000000     0.225200000000     0.797150000000     0          
T        Si     0.850000000000     0.311000000000     0.960650000000     0          
T        Si     0.950000000000     0.264650000000     0.808000000000     0          
T        Si     0.950000000000     0.286200000000     0.911100000000     0          
T        Si     0.950000000000     0.217100000000     0.935050000000     0          
O        O      0.850000000000     0.154050000000     0.894800000000     0          
O        O      0.800000000000     0.125000000000     0.961300000000     0          
O        O      0.950000000000     0.095850000000     0.527600000000     0          
O        O      0.850000000000     0.054250000000     0.829650000000     0          
O        O      0.800000000000     0.046250000000     0.909850000000     0          
O        O      0.850000000000     0.033200000000     0.741200000000     0          
O        O      0.800020000000     0.005850000000     0.809950000000     0          
O        O      0.850000000000     0.458050000000     0.509250000000     0          
O        O      0.900000000000     0.446900000000     0.929950000000     0          
O        O      0.950000000000     0.463500000000     0.853500000000     0          
O        O      0.950000000000     0.497400000000     0.930350000000     0          
T        Si     0.850000000000     0.060700000000     0.886350000000     0          
T        Si     0.850000000000     0.024800000000     0.797150000000     0          
T        Si     0.850000000000     0.439000000000     0.960650000000     0          
T        Si     0.950000000000     0.485350000000     0.808000000000     0          
T        Si     0.950000000000     0.463800000000     0.911100000000     0          
T        Si     0.950000000000     0.032900000000     0.935050000000     0          
O        O      0.800000000000     0.203750000000     0.909850000000     0          
O        O      0.800020000000     0.244150000000     0.809950000000     0          
O        O      0.900000000000     0.303100000000     0.929950000000     0          
O        O      0.900000000000     0.046250000000     0.909850000000     0          
O        O      0.899980000000     0.005850000000     0.809950000000     0          
O        O      0.800000000000     0.446900000000     0.929950000000     0          
O        O      0.900000000000     0.296250000000     0.590150000000     0          
O        O      0.900020000000     0.255850000000     0.690050000000     0          
O        O      0.800000000000     0.196900000000     0.570050000000     0          
O        O      0.800000000000     0.453750000000     0.590150000000     0          
O        O      0.999980000000     0.494150000000     0.690050000000     0          
O        O      0.900000000000     0.053100000000     0.570050000000     0          
O        O      0.950000000000     0.904050000000     0.105200000000     0          
O        O      0.800000000000     0.875000000000     0.038700000000     0          
O        O      0.850000000000     0.845850000000     0.472400000000     0          
O        O      0.950000000000     0.804250000000     0.170350000000     0          
O        O      0.800000000000     0.796250000000     0.090150000000     0          
O        O      0.950000000000     0.783200000000     0.258800000000     0          
O        O      0.999980000000     0.755850000000     0.190050000000     0          
O        O      0.950000000000     0.708050000000     0.490750000000     0          
O        O      0.900000000000     0.696900000000     0.070050000000     0          
O        O      0.850000000000     0.713500000000     0.146500000000     0          
O        O      0.850000000000     0.747400000000     0.069650000000     0          
T        Si     0.950000000000     0.875000000000     0.071850000000     0          
T        Si     0.850000000000     0.875000000000     0.005550000000     0          
T        Si     0.950000000000     0.810700000000     0.113650000000     0          
T        Si     0.950000000000     0.774800000000     0.202850000000     0          
T        Si     0.950000000000     0.689000000000     0.039350000000     0          
T        Si     0.850000000000     0.735350000000     0.192000000000     0          
T        Si     0.850000000000     0.713800000000     0.088900000000     0          
T        Si     0.850000000000     0.782900000000     0.064950000000     0          
O        O      0.950000000000     0.845950000000     0.105200000000     0          
O        O      0.900000000000     0.875000000000     0.038700000000     0          
O        O      0.850000000000     0.904150000000     0.472400000000     0          
O        O      0.950000000000     0.945750000000     0.170350000000     0          
O        O      0.900000000000     0.953750000000     0.090150000000     0          
O        O      0.950000000000     0.966800000000     0.258800000000     0          
O        O      0.900020000000     0.994150000000     0.190050000000     0          
O        O      0.950000000000     0.541950000000     0.490750000000     0          
O        O      0.800000000000     0.553100000000     0.070050000000     0          
O        O      0.850000000000     0.536500000000     0.146500000000     0          
O        O      0.850000000000     0.502600000000     0.069650000000     0          
T        Si     0.950000000000     0.939300000000     0.113650000000     0          
T        Si     0.950000000000     0.975200000000     0.202850000000     0          
T        Si     0.950000000000     0.561000000000     0.039350000000     0          
T        Si     0.850000000000     0.514650000000     0.192000000000     0          
T        Si     0.850000000000     0.536200000000     0.088900000000     0          
T        Si     0.850000000000     0.967100000000     0.064950000000     0          
O        O      0.850000000000     0.595950000000     0.394800000000     0          
O        O      0.900000000000     0.625000000000     0.461300000000     0          
O        O      0.950000000000     0.654150000000     0.027600000000     0          
O        O      0.850000000000     0.695750000000     0.329650000000     0          
O        O      0.900000000000     0.703750000000     0.409850000000     0          
O        O      0.850000000000     0.716800000000     0.241200000000     0          
O        O      0.899980000000     0.744150000000     0.309950000000     0          
O        O      0.850000000000     0.791950000000     0.009250000000     0          
O        O      0.800000000000     0.803100000000     0.429950000000     0          
O        O      0.950000000000     0.786500000000     0.353500000000     0          
O        O      0.950000000000     0.752600000000     0.430350000000     0          
T        Si     0.850000000000     0.625000000000     0.428150000000     0          
T        Si     0.950000000000     0.625000000000     0.494450000000     0          
T        Si     0.850000000000     0.689300000000     0.386350000000     0          
T        Si     0.850000000000     0.725200000000     0.297150000000     0          
T        Si     0.850000000000     0.811000000000     0.460650000000     0          
T        Si     0.950000000000     0.764650000000     0.308000000000     0          
T        Si     0.950000000000     0.786200000000     0.411100000000     0          
T        Si     0.950000000000     0.717100000000     0.435050000000     0          
O        O      0.850000000000     0.654050000000     0.394800000000     0          
O        O      0.800000000000     0.625000000000     0.461300000000     0          
O        O      0.950000000000     0.595850000000     0.027600000000     0          
O        O      0.850000000000     0.554250000000     0.329650000000     0          
O        O      0.800000000000     0.546250000000     0.409850000000     0          
O        O      0.850000000000     0.533200000000     0.241200000000     0          
O        O      0.800020000000     0.505850000000     0.309950000000     0          
O        O      0.850000000000     0.958050000000     0.009250000000     0          
O        O      0.900000000000     0.946900000000     0.429950000000     0          
O        O      0.950000000000     0.963500000000     0.353500000000     0          
O        O      0.950000000000     0.997400000000     0.430350000000     0          
T        Si     0.850000000000     0.560700000000     0.386350000000     0          
T        Si     0.850000000000     0.524800000000     0.297150000000     0          
T        Si     0.850000000000     0.939000000000     0.460650000000     0          
T        Si     0.950000000000     0.985350000000     0.308000000000     0          
T        Si     0.950000000000     0.963800000000     0.411100000000     0          
T        Si     0.950000000000     0.532900000000     0.435050000000     0          
O        O      0.800000000000     0.703750000000     0.409850000000     0          
O        O      0.800020000000     0.744150000000     0.309950000000     0          
O        O      0.900000000000     0.803100000000     0.429950000000     0          
O        O      0.900000000000     0.546250000000     0.409850000000     0          
O        O      0.899980000000     0.505850000000     0.309950000000     0          
O        O      0.800000000000     0.946900000000     0.429950000000     0          
O        O      0.900000000000     0.796250000000     0.090150000000     0          
O        O      0.900020000000     0.755850000000     0.190050000000     0          
O        O      0.800000000000     0.696900000000     0.070050000000     0          
O        O      0.800000000000     0.953750000000     0.090150000000     0          
O        O      0.999980000000     0.994150000000     0.190050000000     0          
O        O      0.900000000000     0.553100000000     0.070050000000     0          
O        O      0.950000000000     0.904050000000     0.605200000000     0          
O        O      0.800000000000     0.875000000000     0.538700000000     0          
O        O      0.850000000000     0.845850000000     0.972400000000     0          
O        O      0.950000000000     0.804250000000     0.670350000000     0          
O        O      0.800000000000     0.796250000000     0.590150000000     0          
O        O      0.950000000000     0.783200000000     0.758800000000     0          
O        O      0.999980000000     0.755850000000     0.690050000000     0          
O        O      0.950000000000     0.708050000000     0.990750000000     0          
O        O      0.900000000000     0.696900000000     0.570050000000     0          
O        O      0.850000000000     0.713500000000     0.646500000000     0          
O        O      0.850000000000     0.747400000000     0.569650000000     0          
T        Si     0.950000000000     0.875000000000     0.571850000000     0          
T        Si     0.850000000000     0.875000000000     0.505550000000     0          
T        Si     0.950000000000     0.810700000000     0.613650000000     0          
T        Si     0.950000000000     0.774800000000     0.702850000000     0          
T        Si     0.950000000000     0.689000000000     0.539350000000     0          
T        Si     0.850000000000     0.735350000000     0.692000000000     0          
T        Si     0.850000000000     0.713800000000     0.588900000000     0          
T        Si     0.850000000000     0.782900000000     0.564950000000     0          
O        O      0.950000000000     0.845950000000     0.605200000000     0          
O        O      0.900000000000     0.875000000000     0.538700000000     0          
O        O      0.850000000000     0.904150000000     0.972400000000     0          
O        O      0.950000000000     0.945750000000     0.670350000000     0          
O        O      0.900000000000     0.953750000000     0.590150000000     0          
O        O      0.950000000000     0.966800000000     0.758800000000     0          
O        O      0.900020000000     0.994150000000     0.690050000000     0          
O        O      0.950000000000     0.541950000000     0.990750000000     0          
O        O      0.800000000000     0.553100000000     0.570050000000     0          
O        O      0.850000000000     0.536500000000     0.646500000000     0          
O        O      0.850000000000     0.502600000000     0.569650000000     0          
T        Si     0.950000000000     0.939300000000     0.613650000000     0          
T        Si     0.950000000000     0.975200000000     0.702850000000     0          
T        Si     0.950000000000     0.561000000000     0.539350000000     0          
T        Si     0.850000000000     0.514650000000     0.692000000000     0          
T        Si     0.850000000000     0.536200000000     0.588900000000     0          
T        Si     0.850000000000     0.967100000000     0.564950000000     0          
O        O      0.850000000000     0.595950000000     0.894800000000     0          
O        O      0.900000000000     0.625000000000     0.961300000000     0          
O        O      0.950000000000     0.654150000000     0.527600000000     0          
O        O      0.850000000000     0.695750000000     0.829650000000     0          
O        O      0.900000000000     0.703750000000     0.909850000000     0          
O        O      0.850000000000     0.716800000000     0.741200000000     0          
O        O      0.899980000000     0.744150000000     0.809950000000     0          
O        O      0.850000000000     0.791950000000     0.509250000000     0          
O        O      0.800000000000     0.803100000000     0.929950000000     0          
O        O      0.950000000000     0.786500000000     0.853500000000     0          
O        O      0.950000000000     0.752600000000     0.930350000000     0          
T        Si     0.850000000000     0.625000000000     0.928150000000     0          
T        Si     0.950000000000     0.625000000000     0.994450000000     0          
T        Si     0.850000000000     0.689300000000     0.886350000000     0          
T        Si     0.850000000000     0.725200000000     0.797150000000     0          
T        Si     0.850000000000     0.811000000000     0.960650000000     0          
T        Si     0.950000000000     0.764650000000     0.808000000000     0          
T        Si     0.950000000000     0.786200000000     0.911100000000     0          
T        Si     0.950000000000     0.717100000000     0.935050000000     0          
O        O      0.850000000000     0.654050000000     0.894800000000     0          
O        O      0.800000000000     0.625000000000     0.961300000000     0          
O        O      0.950000000000     0.595850000000     0.527600000000     0          
O        O      0.850000000000     0.554250000000     0.829650000000     0          
O        O      0.800000000000     0.546250000000     0.909850000000     0          
O        O      0.850000000000     0.533200000000     0.741200000000     0          
O        O      0.800020000000     0.505850000000     0.809950000000     0          
O        O      0.850000000000     0.958050000000     0.509250000000     0          
O        O      0.900000000000     0.946900000000     0.929950000000     0          
O        O      0.950000000000     0.963500000000     0.853500000000     0          
O        O      0.950000000000     0.997400000000     0.930350000000     0          
T        Si     0.850000000000     0.560700000000     0.886350000000     0          
T        Si     0.850000000000     0.524800000000     0.797150000000     0          
T        Si     0.850000000000     0.939000000000     0.960650000000     0          
T        Si     0.950000000000     0.985350000000     0.808000000000     0          
T        Si     0.950000000000     0.963800000000     0.911100000000     0          
T        Si     0.950000000000     0.532900000000     0.935050000000     0          
O        O      0.800000000000     0.703750000000     0.909850000000     0          
O        O      0.800020000000     0.744150000000     0.809950000000     0          
O        O      0.900000000000     0.803100000000     0.929950000000     0          
O        O      0.900000000000     0.546250000000     0.909850000000     0          
O        O      0.899980000000     0.505850000000     0.809950000000     0          
O        O      0.800000000000     0.946900000000     0.929950000000     0          
O        O      0.900000000000     0.796250000000     0.590150000000     0          
O        O      0.900020000000     0.755850000000     0.690050000000     0          
O        O      0.800000000000     0.696900000000     0.570050000000     0          
O        O      0.800000000000     0.953750000000     0.590150000000     0          
O        O      0.999980000000     0.994150000000     0.690050000000     0          
O        O      0.900000000000     0.553100000000     0.570050000000     0          


