data_zeolite

_audit_creation_method RASPA-1.0
_audit_creation_date 2021-6-6
_audit_author_name ''

_cell_length_a    40.028
_cell_length_b    47.16
_cell_length_c    38.007
_cell_angle_alpha 90
_cell_angle_beta  90
_cell_angle_gamma 90
_cell_volume      71746.6

_symmetry_cell_setting          orthorhombic
_symmetry_space_group_name_Hall 'P 1'
_symmetry_space_group_name_H-M  'P 1'
_symmetry_Int_Tables_number     1

_symmetry_equiv_pos_as_xyz 'x,y,z'

loop_
_atom_site_label
_atom_site_type_symbol
_atom_site_fract_x
_atom_site_fract_y
_atom_site_fract_z
_atom_site_charge
O        O      0.100100000000     0.072450000000     0.187666666667     0          
O        O      0.060450000000     0.088100000000     0.239300000000     0          
O        O      0.101650000000     0.125000000000     0.210733333333     0          
O        O      0.125000000000     0.083550000000     0.250000000000     0          
O        O      0.051900000000     0.072050000000     0.305066666667     0          
O        O      0.000000000000     0.084800000000     0.265833333333     0          
O        O      0.040850000000     0.125000000000     0.286900000000     0          
O        O      0.104500000000     0.035250000000     0.136266666667     0          
O        O      0.088100000000     0.481450000000     0.133333333333     0          
O        O      0.061450000000     0.017700000000     0.088833333333     0          
O        O      0.125000000000     0.003800000000     0.083333333333     0          
O        O      0.050550000000     0.036000000000     0.024566666667     0          
O        O      0.041250000000     0.482150000000     0.040033333333     0          
O        O      0.000000000000     0.020750000000     0.064500000000     0          
O        O      0.149300000000     0.035400000000     0.186833333333     0          
T        Si     0.096750000000     0.092350000000     0.221900000000     0          
T        Si     0.038350000000     0.092450000000     0.274300000000     0          
T        Si     0.094800000000     0.009600000000     0.110266666667     0          
T        Si     0.038300000000     0.014150000000     0.054466666667     0          
T        Si     0.110500000000     0.040450000000     0.177666666667     0          
T        Si     0.061100000000     0.040300000000     0.317366666667     0          
O        O      0.399900000000     0.177550000000     0.187666666667     0          
O        O      0.439550000000     0.161900000000     0.239300000000     0          
O        O      0.398350000000     0.125000000000     0.210733333333     0          
O        O      0.375000000000     0.166450000000     0.250000000000     0          
O        O      0.448100000000     0.177950000000     0.305066666667     0          
O        O      0.000000000000     0.165200000000     0.265833333333     0          
O        O      0.459150000000     0.125000000000     0.286900000000     0          
O        O      0.395500000000     0.214750000000     0.136266666667     0          
O        O      0.411900000000     0.268550000000     0.133333333333     0          
O        O      0.438550000000     0.232300000000     0.088833333333     0          
O        O      0.375000000000     0.246200000000     0.083333333333     0          
O        O      0.449450000000     0.214000000000     0.024566666667     0          
O        O      0.458750000000     0.267850000000     0.040033333333     0          
O        O      0.000000000000     0.229250000000     0.064500000000     0          
O        O      0.350700000000     0.214600000000     0.186833333333     0          
T        Si     0.403250000000     0.157650000000     0.221900000000     0          
T        Si     0.461650000000     0.157550000000     0.274300000000     0          
T        Si     0.405200000000     0.240400000000     0.110266666667     0          
T        Si     0.461700000000     0.235850000000     0.054466666667     0          
T        Si     0.389500000000     0.209550000000     0.177666666667     0          
T        Si     0.438900000000     0.209700000000     0.317366666667     0          
O        O      0.100100000000     0.427550000000     0.145666666667     0          
O        O      0.060450000000     0.411900000000     0.094033333333     0          
O        O      0.101650000000     0.375000000000     0.122600000000     0          
O        O      0.125000000000     0.416450000000     0.083333333333     0          
O        O      0.051900000000     0.427950000000     0.028266666667     0          
O        O      0.000000000000     0.415200000000     0.067500000000     0          
O        O      0.040850000000     0.375000000000     0.046433333333     0          
O        O      0.104500000000     0.464750000000     0.197066666667     0          
O        O      0.088100000000     0.018550000000     0.200000000000     0          
O        O      0.061450000000     0.482300000000     0.244500000000     0          
O        O      0.125000000000     0.496200000000     0.250000000000     0          
O        O      0.050550000000     0.464000000000     0.308766666667     0          
O        O      0.041250000000     0.017850000000     0.293300000000     0          
O        O      0.000000000000     0.479250000000     0.268833333333     0          
O        O      0.149300000000     0.464600000000     0.146500000000     0          
T        Si     0.096750000000     0.407650000000     0.111433333333     0          
T        Si     0.038350000000     0.407550000000     0.059033333333     0          
T        Si     0.094800000000     0.490400000000     0.223066666667     0          
T        Si     0.038300000000     0.485850000000     0.278866666667     0          
T        Si     0.110500000000     0.459550000000     0.155666666667     0          
T        Si     0.061100000000     0.459700000000     0.015966666667     0          
O        O      0.399900000000     0.322450000000     0.145666666667     0          
O        O      0.439550000000     0.338100000000     0.094033333333     0          
O        O      0.398350000000     0.375000000000     0.122600000000     0          
O        O      0.375000000000     0.333550000000     0.083333333333     0          
O        O      0.448100000000     0.322050000000     0.028266666667     0          
O        O      0.000000000000     0.334800000000     0.067500000000     0          
O        O      0.459150000000     0.375000000000     0.046433333333     0          
O        O      0.395500000000     0.285250000000     0.197066666667     0          
O        O      0.411900000000     0.231450000000     0.200000000000     0          
O        O      0.438550000000     0.267700000000     0.244500000000     0          
O        O      0.375000000000     0.253800000000     0.250000000000     0          
O        O      0.449450000000     0.286000000000     0.308766666667     0          
O        O      0.458750000000     0.232150000000     0.293300000000     0          
O        O      0.000000000000     0.270750000000     0.268833333333     0          
O        O      0.350700000000     0.285400000000     0.146500000000     0          
T        Si     0.403250000000     0.342350000000     0.111433333333     0          
T        Si     0.461650000000     0.342450000000     0.059033333333     0          
T        Si     0.405200000000     0.259600000000     0.223066666667     0          
T        Si     0.461700000000     0.264150000000     0.278866666667     0          
T        Si     0.389500000000     0.290450000000     0.155666666667     0          
T        Si     0.438900000000     0.290300000000     0.015966666667     0          
O        O      0.399900000000     0.427550000000     0.145666666667     0          
O        O      0.439550000000     0.411900000000     0.094033333333     0          
O        O      0.375000000000     0.416450000000     0.083333333333     0          
O        O      0.448100000000     0.427950000000     0.028266666667     0          
O        O      0.395500000000     0.464750000000     0.197066666667     0          
O        O      0.411900000000     0.018550000000     0.200000000000     0          
O        O      0.438550000000     0.482300000000     0.244500000000     0          
O        O      0.375000000000     0.496200000000     0.250000000000     0          
O        O      0.449450000000     0.464000000000     0.308766666667     0          
O        O      0.458750000000     0.017850000000     0.293300000000     0          
O        O      0.350700000000     0.464600000000     0.146500000000     0          
T        Si     0.403250000000     0.407650000000     0.111433333333     0          
T        Si     0.461650000000     0.407550000000     0.059033333333     0          
T        Si     0.405200000000     0.490400000000     0.223066666667     0          
T        Si     0.461700000000     0.485850000000     0.278866666667     0          
T        Si     0.389500000000     0.459550000000     0.155666666667     0          
T        Si     0.438900000000     0.459700000000     0.015966666667     0          
O        O      0.100100000000     0.322450000000     0.145666666667     0          
O        O      0.060450000000     0.338100000000     0.094033333333     0          
O        O      0.125000000000     0.333550000000     0.083333333333     0          
O        O      0.051900000000     0.322050000000     0.028266666667     0          
O        O      0.104500000000     0.285250000000     0.197066666667     0          
O        O      0.088100000000     0.231450000000     0.200000000000     0          
O        O      0.061450000000     0.267700000000     0.244500000000     0          
O        O      0.125000000000     0.253800000000     0.250000000000     0          
O        O      0.050550000000     0.286000000000     0.308766666667     0          
O        O      0.041250000000     0.232150000000     0.293300000000     0          
O        O      0.149300000000     0.285400000000     0.146500000000     0          
T        Si     0.096750000000     0.342350000000     0.111433333333     0          
T        Si     0.038350000000     0.342450000000     0.059033333333     0          
T        Si     0.094800000000     0.259600000000     0.223066666667     0          
T        Si     0.038300000000     0.264150000000     0.278866666667     0          
T        Si     0.110500000000     0.290450000000     0.155666666667     0          
T        Si     0.061100000000     0.290300000000     0.015966666667     0          
O        O      0.399900000000     0.072450000000     0.187666666667     0          
O        O      0.439550000000     0.088100000000     0.239300000000     0          
O        O      0.375000000000     0.083550000000     0.250000000000     0          
O        O      0.448100000000     0.072050000000     0.305066666667     0          
O        O      0.395500000000     0.035250000000     0.136266666667     0          
O        O      0.411900000000     0.481450000000     0.133333333333     0          
O        O      0.438550000000     0.017700000000     0.088833333333     0          
O        O      0.375000000000     0.003800000000     0.083333333333     0          
O        O      0.449450000000     0.036000000000     0.024566666667     0          
O        O      0.458750000000     0.482150000000     0.040033333333     0          
O        O      0.350700000000     0.035400000000     0.186833333333     0          
T        Si     0.403250000000     0.092350000000     0.221900000000     0          
T        Si     0.461650000000     0.092450000000     0.274300000000     0          
T        Si     0.405200000000     0.009600000000     0.110266666667     0          
T        Si     0.461700000000     0.014150000000     0.054466666667     0          
T        Si     0.389500000000     0.040450000000     0.177666666667     0          
T        Si     0.438900000000     0.040300000000     0.317366666667     0          
O        O      0.100100000000     0.177550000000     0.187666666667     0          
O        O      0.060450000000     0.161900000000     0.239300000000     0          
O        O      0.125000000000     0.166450000000     0.250000000000     0          
O        O      0.051900000000     0.177950000000     0.305066666667     0          
O        O      0.104500000000     0.214750000000     0.136266666667     0          
O        O      0.088100000000     0.268550000000     0.133333333333     0          
O        O      0.061450000000     0.232300000000     0.088833333333     0          
O        O      0.125000000000     0.246200000000     0.083333333333     0          
O        O      0.050550000000     0.214000000000     0.024566666667     0          
O        O      0.041250000000     0.267850000000     0.040033333333     0          
O        O      0.149300000000     0.214600000000     0.186833333333     0          
T        Si     0.096750000000     0.157650000000     0.221900000000     0          
T        Si     0.038350000000     0.157550000000     0.274300000000     0          
T        Si     0.094800000000     0.240400000000     0.110266666667     0          
T        Si     0.038300000000     0.235850000000     0.054466666667     0          
T        Si     0.110500000000     0.209550000000     0.177666666667     0          
T        Si     0.061100000000     0.209700000000     0.317366666667     0          
O        O      0.350100000000     0.322450000000     0.021000000000     0          
O        O      0.310450000000     0.338100000000     0.072633333333     0          
O        O      0.351650000000     0.375000000000     0.044066666667     0          
O        O      0.301900000000     0.322050000000     0.138400000000     0          
O        O      0.250000000000     0.334800000000     0.099166666667     0          
O        O      0.290850000000     0.375000000000     0.120233333333     0          
O        O      0.354500000000     0.285250000000     0.302933333333     0          
O        O      0.338100000000     0.231450000000     0.300000000000     0          
O        O      0.311450000000     0.267700000000     0.255500000000     0          
O        O      0.300550000000     0.286000000000     0.191233333333     0          
O        O      0.291250000000     0.232150000000     0.206700000000     0          
O        O      0.250000000000     0.270750000000     0.231166666667     0          
O        O      0.399300000000     0.285400000000     0.020166666667     0          
T        Si     0.346750000000     0.342350000000     0.055233333333     0          
T        Si     0.288350000000     0.342450000000     0.107633333333     0          
T        Si     0.344800000000     0.259600000000     0.276933333333     0          
T        Si     0.288300000000     0.264150000000     0.221133333333     0          
T        Si     0.360500000000     0.290450000000     0.011000000000     0          
T        Si     0.311100000000     0.290300000000     0.150700000000     0          
O        O      0.149900000000     0.427550000000     0.021000000000     0          
O        O      0.189550000000     0.411900000000     0.072633333333     0          
O        O      0.148350000000     0.375000000000     0.044066666667     0          
O        O      0.198100000000     0.427950000000     0.138400000000     0          
O        O      0.250000000000     0.415200000000     0.099166666667     0          
O        O      0.209150000000     0.375000000000     0.120233333333     0          
O        O      0.145500000000     0.464750000000     0.302933333333     0          
O        O      0.161900000000     0.018550000000     0.300000000000     0          
O        O      0.188550000000     0.482300000000     0.255500000000     0          
O        O      0.199450000000     0.464000000000     0.191233333333     0          
O        O      0.208750000000     0.017850000000     0.206700000000     0          
O        O      0.250000000000     0.479250000000     0.231166666667     0          
O        O      0.100700000000     0.464600000000     0.020166666667     0          
T        Si     0.153250000000     0.407650000000     0.055233333333     0          
T        Si     0.211650000000     0.407550000000     0.107633333333     0          
T        Si     0.155200000000     0.490400000000     0.276933333333     0          
T        Si     0.211700000000     0.485850000000     0.221133333333     0          
T        Si     0.139500000000     0.459550000000     0.011000000000     0          
T        Si     0.188900000000     0.459700000000     0.150700000000     0          
O        O      0.350100000000     0.177550000000     0.312333333333     0          
O        O      0.310450000000     0.161900000000     0.260700000000     0          
O        O      0.351650000000     0.125000000000     0.289266666667     0          
O        O      0.301900000000     0.177950000000     0.194933333333     0          
O        O      0.250000000000     0.165200000000     0.234166666667     0          
O        O      0.290850000000     0.125000000000     0.213100000000     0          
O        O      0.354500000000     0.214750000000     0.030400000000     0          
O        O      0.338100000000     0.268550000000     0.033333333333     0          
O        O      0.311450000000     0.232300000000     0.077833333333     0          
O        O      0.300550000000     0.214000000000     0.142100000000     0          
O        O      0.291250000000     0.267850000000     0.126633333333     0          
O        O      0.250000000000     0.229250000000     0.102166666667     0          
O        O      0.399300000000     0.214600000000     0.313166666667     0          
T        Si     0.346750000000     0.157650000000     0.278100000000     0          
T        Si     0.288350000000     0.157550000000     0.225700000000     0          
T        Si     0.344800000000     0.240400000000     0.056400000000     0          
T        Si     0.288300000000     0.235850000000     0.112200000000     0          
T        Si     0.360500000000     0.209550000000     0.322333333333     0          
T        Si     0.311100000000     0.209700000000     0.182633333333     0          
O        O      0.149900000000     0.072450000000     0.312333333333     0          
O        O      0.189550000000     0.088100000000     0.260700000000     0          
O        O      0.148350000000     0.125000000000     0.289266666667     0          
O        O      0.198100000000     0.072050000000     0.194933333333     0          
O        O      0.250000000000     0.084800000000     0.234166666667     0          
O        O      0.209150000000     0.125000000000     0.213100000000     0          
O        O      0.145500000000     0.035250000000     0.030400000000     0          
O        O      0.161900000000     0.481450000000     0.033333333333     0          
O        O      0.188550000000     0.017700000000     0.077833333333     0          
O        O      0.199450000000     0.036000000000     0.142100000000     0          
O        O      0.208750000000     0.482150000000     0.126633333333     0          
O        O      0.250000000000     0.020750000000     0.102166666667     0          
O        O      0.100700000000     0.035400000000     0.313166666667     0          
T        Si     0.153250000000     0.092350000000     0.278100000000     0          
T        Si     0.211650000000     0.092450000000     0.225700000000     0          
T        Si     0.155200000000     0.009600000000     0.056400000000     0          
T        Si     0.211700000000     0.014150000000     0.112200000000     0          
T        Si     0.139500000000     0.040450000000     0.322333333333     0          
T        Si     0.188900000000     0.040300000000     0.182633333333     0          
O        O      0.149900000000     0.177550000000     0.312333333333     0          
O        O      0.189550000000     0.161900000000     0.260700000000     0          
O        O      0.198100000000     0.177950000000     0.194933333333     0          
O        O      0.145500000000     0.214750000000     0.030400000000     0          
O        O      0.161900000000     0.268550000000     0.033333333333     0          
O        O      0.188550000000     0.232300000000     0.077833333333     0          
O        O      0.199450000000     0.214000000000     0.142100000000     0          
O        O      0.208750000000     0.267850000000     0.126633333333     0          
O        O      0.100700000000     0.214600000000     0.313166666667     0          
T        Si     0.153250000000     0.157650000000     0.278100000000     0          
T        Si     0.211650000000     0.157550000000     0.225700000000     0          
T        Si     0.155200000000     0.240400000000     0.056400000000     0          
T        Si     0.211700000000     0.235850000000     0.112200000000     0          
T        Si     0.139500000000     0.209550000000     0.322333333333     0          
T        Si     0.188900000000     0.209700000000     0.182633333333     0          
O        O      0.350100000000     0.072450000000     0.312333333333     0          
O        O      0.310450000000     0.088100000000     0.260700000000     0          
O        O      0.301900000000     0.072050000000     0.194933333333     0          
O        O      0.354500000000     0.035250000000     0.030400000000     0          
O        O      0.338100000000     0.481450000000     0.033333333333     0          
O        O      0.311450000000     0.017700000000     0.077833333333     0          
O        O      0.300550000000     0.036000000000     0.142100000000     0          
O        O      0.291250000000     0.482150000000     0.126633333333     0          
O        O      0.399300000000     0.035400000000     0.313166666667     0          
T        Si     0.346750000000     0.092350000000     0.278100000000     0          
T        Si     0.288350000000     0.092450000000     0.225700000000     0          
T        Si     0.344800000000     0.009600000000     0.056400000000     0          
T        Si     0.288300000000     0.014150000000     0.112200000000     0          
T        Si     0.360500000000     0.040450000000     0.322333333333     0          
T        Si     0.311100000000     0.040300000000     0.182633333333     0          
O        O      0.149900000000     0.322450000000     0.021000000000     0          
O        O      0.189550000000     0.338100000000     0.072633333333     0          
O        O      0.198100000000     0.322050000000     0.138400000000     0          
O        O      0.145500000000     0.285250000000     0.302933333333     0          
O        O      0.161900000000     0.231450000000     0.300000000000     0          
O        O      0.188550000000     0.267700000000     0.255500000000     0          
O        O      0.199450000000     0.286000000000     0.191233333333     0          
O        O      0.208750000000     0.232150000000     0.206700000000     0          
O        O      0.100700000000     0.285400000000     0.020166666667     0          
T        Si     0.153250000000     0.342350000000     0.055233333333     0          
T        Si     0.211650000000     0.342450000000     0.107633333333     0          
T        Si     0.155200000000     0.259600000000     0.276933333333     0          
T        Si     0.211700000000     0.264150000000     0.221133333333     0          
T        Si     0.139500000000     0.290450000000     0.011000000000     0          
T        Si     0.188900000000     0.290300000000     0.150700000000     0          
O        O      0.350100000000     0.427550000000     0.021000000000     0          
O        O      0.310450000000     0.411900000000     0.072633333333     0          
O        O      0.301900000000     0.427950000000     0.138400000000     0          
O        O      0.354500000000     0.464750000000     0.302933333333     0          
O        O      0.338100000000     0.018550000000     0.300000000000     0          
O        O      0.311450000000     0.482300000000     0.255500000000     0          
O        O      0.300550000000     0.464000000000     0.191233333333     0          
O        O      0.291250000000     0.017850000000     0.206700000000     0          
O        O      0.399300000000     0.464600000000     0.020166666667     0          
T        Si     0.346750000000     0.407650000000     0.055233333333     0          
T        Si     0.288350000000     0.407550000000     0.107633333333     0          
T        Si     0.344800000000     0.490400000000     0.276933333333     0          
T        Si     0.288300000000     0.485850000000     0.221133333333     0          
T        Si     0.360500000000     0.459550000000     0.011000000000     0          
T        Si     0.311100000000     0.459700000000     0.150700000000     0          
O        O      0.100100000000     0.072450000000     0.521000000000     0          
O        O      0.060450000000     0.088100000000     0.572633333333     0          
O        O      0.101650000000     0.125000000000     0.544066666667     0          
O        O      0.125000000000     0.083550000000     0.583333333333     0          
O        O      0.051900000000     0.072050000000     0.638400000000     0          
O        O      0.000000000000     0.084800000000     0.599166666667     0          
O        O      0.040850000000     0.125000000000     0.620233333333     0          
O        O      0.104500000000     0.035250000000     0.469600000000     0          
O        O      0.088100000000     0.481450000000     0.466666666667     0          
O        O      0.061450000000     0.017700000000     0.422166666667     0          
O        O      0.125000000000     0.003800000000     0.416666666667     0          
O        O      0.050550000000     0.036000000000     0.357900000000     0          
O        O      0.041250000000     0.482150000000     0.373366666667     0          
O        O      0.000000000000     0.020750000000     0.397833333333     0          
O        O      0.149300000000     0.035400000000     0.520166666667     0          
T        Si     0.096750000000     0.092350000000     0.555233333333     0          
T        Si     0.038350000000     0.092450000000     0.607633333333     0          
T        Si     0.094800000000     0.009600000000     0.443600000000     0          
T        Si     0.038300000000     0.014150000000     0.387800000000     0          
T        Si     0.110500000000     0.040450000000     0.511000000000     0          
T        Si     0.061100000000     0.040300000000     0.650700000000     0          
O        O      0.399900000000     0.177550000000     0.521000000000     0          
O        O      0.439550000000     0.161900000000     0.572633333333     0          
O        O      0.398350000000     0.125000000000     0.544066666667     0          
O        O      0.375000000000     0.166450000000     0.583333333333     0          
O        O      0.448100000000     0.177950000000     0.638400000000     0          
O        O      0.000000000000     0.165200000000     0.599166666667     0          
O        O      0.459150000000     0.125000000000     0.620233333333     0          
O        O      0.395500000000     0.214750000000     0.469600000000     0          
O        O      0.411900000000     0.268550000000     0.466666666667     0          
O        O      0.438550000000     0.232300000000     0.422166666667     0          
O        O      0.375000000000     0.246200000000     0.416666666667     0          
O        O      0.449450000000     0.214000000000     0.357900000000     0          
O        O      0.458750000000     0.267850000000     0.373366666667     0          
O        O      0.000000000000     0.229250000000     0.397833333333     0          
O        O      0.350700000000     0.214600000000     0.520166666667     0          
T        Si     0.403250000000     0.157650000000     0.555233333333     0          
T        Si     0.461650000000     0.157550000000     0.607633333333     0          
T        Si     0.405200000000     0.240400000000     0.443600000000     0          
T        Si     0.461700000000     0.235850000000     0.387800000000     0          
T        Si     0.389500000000     0.209550000000     0.511000000000     0          
T        Si     0.438900000000     0.209700000000     0.650700000000     0          
O        O      0.100100000000     0.427550000000     0.479000000000     0          
O        O      0.060450000000     0.411900000000     0.427366666667     0          
O        O      0.101650000000     0.375000000000     0.455933333333     0          
O        O      0.125000000000     0.416450000000     0.416666666667     0          
O        O      0.051900000000     0.427950000000     0.361600000000     0          
O        O      0.000000000000     0.415200000000     0.400833333333     0          
O        O      0.040850000000     0.375000000000     0.379766666667     0          
O        O      0.104500000000     0.464750000000     0.530400000000     0          
O        O      0.088100000000     0.018550000000     0.533333333333     0          
O        O      0.061450000000     0.482300000000     0.577833333333     0          
O        O      0.125000000000     0.496200000000     0.583333333333     0          
O        O      0.050550000000     0.464000000000     0.642100000000     0          
O        O      0.041250000000     0.017850000000     0.626633333333     0          
O        O      0.000000000000     0.479250000000     0.602166666667     0          
O        O      0.149300000000     0.464600000000     0.479833333333     0          
T        Si     0.096750000000     0.407650000000     0.444766666667     0          
T        Si     0.038350000000     0.407550000000     0.392366666667     0          
T        Si     0.094800000000     0.490400000000     0.556400000000     0          
T        Si     0.038300000000     0.485850000000     0.612200000000     0          
T        Si     0.110500000000     0.459550000000     0.489000000000     0          
T        Si     0.061100000000     0.459700000000     0.349300000000     0          
O        O      0.399900000000     0.322450000000     0.479000000000     0          
O        O      0.439550000000     0.338100000000     0.427366666667     0          
O        O      0.398350000000     0.375000000000     0.455933333333     0          
O        O      0.375000000000     0.333550000000     0.416666666667     0          
O        O      0.448100000000     0.322050000000     0.361600000000     0          
O        O      0.000000000000     0.334800000000     0.400833333333     0          
O        O      0.459150000000     0.375000000000     0.379766666667     0          
O        O      0.395500000000     0.285250000000     0.530400000000     0          
O        O      0.411900000000     0.231450000000     0.533333333333     0          
O        O      0.438550000000     0.267700000000     0.577833333333     0          
O        O      0.375000000000     0.253800000000     0.583333333333     0          
O        O      0.449450000000     0.286000000000     0.642100000000     0          
O        O      0.458750000000     0.232150000000     0.626633333333     0          
O        O      0.000000000000     0.270750000000     0.602166666667     0          
O        O      0.350700000000     0.285400000000     0.479833333333     0          
T        Si     0.403250000000     0.342350000000     0.444766666667     0          
T        Si     0.461650000000     0.342450000000     0.392366666667     0          
T        Si     0.405200000000     0.259600000000     0.556400000000     0          
T        Si     0.461700000000     0.264150000000     0.612200000000     0          
T        Si     0.389500000000     0.290450000000     0.489000000000     0          
T        Si     0.438900000000     0.290300000000     0.349300000000     0          
O        O      0.399900000000     0.427550000000     0.479000000000     0          
O        O      0.439550000000     0.411900000000     0.427366666667     0          
O        O      0.375000000000     0.416450000000     0.416666666667     0          
O        O      0.448100000000     0.427950000000     0.361600000000     0          
O        O      0.395500000000     0.464750000000     0.530400000000     0          
O        O      0.411900000000     0.018550000000     0.533333333333     0          
O        O      0.438550000000     0.482300000000     0.577833333333     0          
O        O      0.375000000000     0.496200000000     0.583333333333     0          
O        O      0.449450000000     0.464000000000     0.642100000000     0          
O        O      0.458750000000     0.017850000000     0.626633333333     0          
O        O      0.350700000000     0.464600000000     0.479833333333     0          
T        Si     0.403250000000     0.407650000000     0.444766666667     0          
T        Si     0.461650000000     0.407550000000     0.392366666667     0          
T        Si     0.405200000000     0.490400000000     0.556400000000     0          
T        Si     0.461700000000     0.485850000000     0.612200000000     0          
T        Si     0.389500000000     0.459550000000     0.489000000000     0          
T        Si     0.438900000000     0.459700000000     0.349300000000     0          
O        O      0.100100000000     0.322450000000     0.479000000000     0          
O        O      0.060450000000     0.338100000000     0.427366666667     0          
O        O      0.125000000000     0.333550000000     0.416666666667     0          
O        O      0.051900000000     0.322050000000     0.361600000000     0          
O        O      0.104500000000     0.285250000000     0.530400000000     0          
O        O      0.088100000000     0.231450000000     0.533333333333     0          
O        O      0.061450000000     0.267700000000     0.577833333333     0          
O        O      0.125000000000     0.253800000000     0.583333333333     0          
O        O      0.050550000000     0.286000000000     0.642100000000     0          
O        O      0.041250000000     0.232150000000     0.626633333333     0          
O        O      0.149300000000     0.285400000000     0.479833333333     0          
T        Si     0.096750000000     0.342350000000     0.444766666667     0          
T        Si     0.038350000000     0.342450000000     0.392366666667     0          
T        Si     0.094800000000     0.259600000000     0.556400000000     0          
T        Si     0.038300000000     0.264150000000     0.612200000000     0          
T        Si     0.110500000000     0.290450000000     0.489000000000     0          
T        Si     0.061100000000     0.290300000000     0.349300000000     0          
O        O      0.399900000000     0.072450000000     0.521000000000     0          
O        O      0.439550000000     0.088100000000     0.572633333333     0          
O        O      0.375000000000     0.083550000000     0.583333333333     0          
O        O      0.448100000000     0.072050000000     0.638400000000     0          
O        O      0.395500000000     0.035250000000     0.469600000000     0          
O        O      0.411900000000     0.481450000000     0.466666666667     0          
O        O      0.438550000000     0.017700000000     0.422166666667     0          
O        O      0.375000000000     0.003800000000     0.416666666667     0          
O        O      0.449450000000     0.036000000000     0.357900000000     0          
O        O      0.458750000000     0.482150000000     0.373366666667     0          
O        O      0.350700000000     0.035400000000     0.520166666667     0          
T        Si     0.403250000000     0.092350000000     0.555233333333     0          
T        Si     0.461650000000     0.092450000000     0.607633333333     0          
T        Si     0.405200000000     0.009600000000     0.443600000000     0          
T        Si     0.461700000000     0.014150000000     0.387800000000     0          
T        Si     0.389500000000     0.040450000000     0.511000000000     0          
T        Si     0.438900000000     0.040300000000     0.650700000000     0          
O        O      0.100100000000     0.177550000000     0.521000000000     0          
O        O      0.060450000000     0.161900000000     0.572633333333     0          
O        O      0.125000000000     0.166450000000     0.583333333333     0          
O        O      0.051900000000     0.177950000000     0.638400000000     0          
O        O      0.104500000000     0.214750000000     0.469600000000     0          
O        O      0.088100000000     0.268550000000     0.466666666667     0          
O        O      0.061450000000     0.232300000000     0.422166666667     0          
O        O      0.125000000000     0.246200000000     0.416666666667     0          
O        O      0.050550000000     0.214000000000     0.357900000000     0          
O        O      0.041250000000     0.267850000000     0.373366666667     0          
O        O      0.149300000000     0.214600000000     0.520166666667     0          
T        Si     0.096750000000     0.157650000000     0.555233333333     0          
T        Si     0.038350000000     0.157550000000     0.607633333333     0          
T        Si     0.094800000000     0.240400000000     0.443600000000     0          
T        Si     0.038300000000     0.235850000000     0.387800000000     0          
T        Si     0.110500000000     0.209550000000     0.511000000000     0          
T        Si     0.061100000000     0.209700000000     0.650700000000     0          
O        O      0.350100000000     0.322450000000     0.354333333333     0          
O        O      0.310450000000     0.338100000000     0.405966666667     0          
O        O      0.351650000000     0.375000000000     0.377400000000     0          
O        O      0.301900000000     0.322050000000     0.471733333333     0          
O        O      0.250000000000     0.334800000000     0.432500000000     0          
O        O      0.290850000000     0.375000000000     0.453566666667     0          
O        O      0.354500000000     0.285250000000     0.636266666667     0          
O        O      0.338100000000     0.231450000000     0.633333333333     0          
O        O      0.311450000000     0.267700000000     0.588833333333     0          
O        O      0.300550000000     0.286000000000     0.524566666667     0          
O        O      0.291250000000     0.232150000000     0.540033333333     0          
O        O      0.250000000000     0.270750000000     0.564500000000     0          
O        O      0.399300000000     0.285400000000     0.353500000000     0          
T        Si     0.346750000000     0.342350000000     0.388566666667     0          
T        Si     0.288350000000     0.342450000000     0.440966666667     0          
T        Si     0.344800000000     0.259600000000     0.610266666667     0          
T        Si     0.288300000000     0.264150000000     0.554466666667     0          
T        Si     0.360500000000     0.290450000000     0.344333333333     0          
T        Si     0.311100000000     0.290300000000     0.484033333333     0          
O        O      0.149900000000     0.427550000000     0.354333333333     0          
O        O      0.189550000000     0.411900000000     0.405966666667     0          
O        O      0.148350000000     0.375000000000     0.377400000000     0          
O        O      0.198100000000     0.427950000000     0.471733333333     0          
O        O      0.250000000000     0.415200000000     0.432500000000     0          
O        O      0.209150000000     0.375000000000     0.453566666667     0          
O        O      0.145500000000     0.464750000000     0.636266666667     0          
O        O      0.161900000000     0.018550000000     0.633333333333     0          
O        O      0.188550000000     0.482300000000     0.588833333333     0          
O        O      0.199450000000     0.464000000000     0.524566666667     0          
O        O      0.208750000000     0.017850000000     0.540033333333     0          
O        O      0.250000000000     0.479250000000     0.564500000000     0          
O        O      0.100700000000     0.464600000000     0.353500000000     0          
T        Si     0.153250000000     0.407650000000     0.388566666667     0          
T        Si     0.211650000000     0.407550000000     0.440966666667     0          
T        Si     0.155200000000     0.490400000000     0.610266666667     0          
T        Si     0.211700000000     0.485850000000     0.554466666667     0          
T        Si     0.139500000000     0.459550000000     0.344333333333     0          
T        Si     0.188900000000     0.459700000000     0.484033333333     0          
O        O      0.350100000000     0.177550000000     0.645666666667     0          
O        O      0.310450000000     0.161900000000     0.594033333333     0          
O        O      0.351650000000     0.125000000000     0.622600000000     0          
O        O      0.301900000000     0.177950000000     0.528266666667     0          
O        O      0.250000000000     0.165200000000     0.567500000000     0          
O        O      0.290850000000     0.125000000000     0.546433333333     0          
O        O      0.354500000000     0.214750000000     0.363733333333     0          
O        O      0.338100000000     0.268550000000     0.366666666667     0          
O        O      0.311450000000     0.232300000000     0.411166666667     0          
O        O      0.300550000000     0.214000000000     0.475433333333     0          
O        O      0.291250000000     0.267850000000     0.459966666667     0          
O        O      0.250000000000     0.229250000000     0.435500000000     0          
O        O      0.399300000000     0.214600000000     0.646500000000     0          
T        Si     0.346750000000     0.157650000000     0.611433333333     0          
T        Si     0.288350000000     0.157550000000     0.559033333333     0          
T        Si     0.344800000000     0.240400000000     0.389733333333     0          
T        Si     0.288300000000     0.235850000000     0.445533333333     0          
T        Si     0.360500000000     0.209550000000     0.655666666667     0          
T        Si     0.311100000000     0.209700000000     0.515966666667     0          
O        O      0.149900000000     0.072450000000     0.645666666667     0          
O        O      0.189550000000     0.088100000000     0.594033333333     0          
O        O      0.148350000000     0.125000000000     0.622600000000     0          
O        O      0.198100000000     0.072050000000     0.528266666667     0          
O        O      0.250000000000     0.084800000000     0.567500000000     0          
O        O      0.209150000000     0.125000000000     0.546433333333     0          
O        O      0.145500000000     0.035250000000     0.363733333333     0          
O        O      0.161900000000     0.481450000000     0.366666666667     0          
O        O      0.188550000000     0.017700000000     0.411166666667     0          
O        O      0.199450000000     0.036000000000     0.475433333333     0          
O        O      0.208750000000     0.482150000000     0.459966666667     0          
O        O      0.250000000000     0.020750000000     0.435500000000     0          
O        O      0.100700000000     0.035400000000     0.646500000000     0          
T        Si     0.153250000000     0.092350000000     0.611433333333     0          
T        Si     0.211650000000     0.092450000000     0.559033333333     0          
T        Si     0.155200000000     0.009600000000     0.389733333333     0          
T        Si     0.211700000000     0.014150000000     0.445533333333     0          
T        Si     0.139500000000     0.040450000000     0.655666666667     0          
T        Si     0.188900000000     0.040300000000     0.515966666667     0          
O        O      0.149900000000     0.177550000000     0.645666666667     0          
O        O      0.189550000000     0.161900000000     0.594033333333     0          
O        O      0.198100000000     0.177950000000     0.528266666667     0          
O        O      0.145500000000     0.214750000000     0.363733333333     0          
O        O      0.161900000000     0.268550000000     0.366666666667     0          
O        O      0.188550000000     0.232300000000     0.411166666667     0          
O        O      0.199450000000     0.214000000000     0.475433333333     0          
O        O      0.208750000000     0.267850000000     0.459966666667     0          
O        O      0.100700000000     0.214600000000     0.646500000000     0          
T        Si     0.153250000000     0.157650000000     0.611433333333     0          
T        Si     0.211650000000     0.157550000000     0.559033333333     0          
T        Si     0.155200000000     0.240400000000     0.389733333333     0          
T        Si     0.211700000000     0.235850000000     0.445533333333     0          
T        Si     0.139500000000     0.209550000000     0.655666666667     0          
T        Si     0.188900000000     0.209700000000     0.515966666667     0          
O        O      0.350100000000     0.072450000000     0.645666666667     0          
O        O      0.310450000000     0.088100000000     0.594033333333     0          
O        O      0.301900000000     0.072050000000     0.528266666667     0          
O        O      0.354500000000     0.035250000000     0.363733333333     0          
O        O      0.338100000000     0.481450000000     0.366666666667     0          
O        O      0.311450000000     0.017700000000     0.411166666667     0          
O        O      0.300550000000     0.036000000000     0.475433333333     0          
O        O      0.291250000000     0.482150000000     0.459966666667     0          
O        O      0.399300000000     0.035400000000     0.646500000000     0          
T        Si     0.346750000000     0.092350000000     0.611433333333     0          
T        Si     0.288350000000     0.092450000000     0.559033333333     0          
T        Si     0.344800000000     0.009600000000     0.389733333333     0          
T        Si     0.288300000000     0.014150000000     0.445533333333     0          
T        Si     0.360500000000     0.040450000000     0.655666666667     0          
T        Si     0.311100000000     0.040300000000     0.515966666667     0          
O        O      0.149900000000     0.322450000000     0.354333333333     0          
O        O      0.189550000000     0.338100000000     0.405966666667     0          
O        O      0.198100000000     0.322050000000     0.471733333333     0          
O        O      0.145500000000     0.285250000000     0.636266666667     0          
O        O      0.161900000000     0.231450000000     0.633333333333     0          
O        O      0.188550000000     0.267700000000     0.588833333333     0          
O        O      0.199450000000     0.286000000000     0.524566666667     0          
O        O      0.208750000000     0.232150000000     0.540033333333     0          
O        O      0.100700000000     0.285400000000     0.353500000000     0          
T        Si     0.153250000000     0.342350000000     0.388566666667     0          
T        Si     0.211650000000     0.342450000000     0.440966666667     0          
T        Si     0.155200000000     0.259600000000     0.610266666667     0          
T        Si     0.211700000000     0.264150000000     0.554466666667     0          
T        Si     0.139500000000     0.290450000000     0.344333333333     0          
T        Si     0.188900000000     0.290300000000     0.484033333333     0          
O        O      0.350100000000     0.427550000000     0.354333333333     0          
O        O      0.310450000000     0.411900000000     0.405966666667     0          
O        O      0.301900000000     0.427950000000     0.471733333333     0          
O        O      0.354500000000     0.464750000000     0.636266666667     0          
O        O      0.338100000000     0.018550000000     0.633333333333     0          
O        O      0.311450000000     0.482300000000     0.588833333333     0          
O        O      0.300550000000     0.464000000000     0.524566666667     0          
O        O      0.291250000000     0.017850000000     0.540033333333     0          
O        O      0.399300000000     0.464600000000     0.353500000000     0          
T        Si     0.346750000000     0.407650000000     0.388566666667     0          
T        Si     0.288350000000     0.407550000000     0.440966666667     0          
T        Si     0.344800000000     0.490400000000     0.610266666667     0          
T        Si     0.288300000000     0.485850000000     0.554466666667     0          
T        Si     0.360500000000     0.459550000000     0.344333333333     0          
T        Si     0.311100000000     0.459700000000     0.484033333333     0          
O        O      0.100100000000     0.072450000000     0.854333333333     0          
O        O      0.060450000000     0.088100000000     0.905966666667     0          
O        O      0.101650000000     0.125000000000     0.877400000000     0          
O        O      0.125000000000     0.083550000000     0.916666666667     0          
O        O      0.051900000000     0.072050000000     0.971733333333     0          
O        O      0.000000000000     0.084800000000     0.932500000000     0          
O        O      0.040850000000     0.125000000000     0.953566666667     0          
O        O      0.104500000000     0.035250000000     0.802933333333     0          
O        O      0.088100000000     0.481450000000     0.800000000000     0          
O        O      0.061450000000     0.017700000000     0.755500000000     0          
O        O      0.125000000000     0.003800000000     0.750000000000     0          
O        O      0.050550000000     0.036000000000     0.691233333333     0          
O        O      0.041250000000     0.482150000000     0.706700000000     0          
O        O      0.000000000000     0.020750000000     0.731166666667     0          
O        O      0.149300000000     0.035400000000     0.853500000000     0          
T        Si     0.096750000000     0.092350000000     0.888566666667     0          
T        Si     0.038350000000     0.092450000000     0.940966666667     0          
T        Si     0.094800000000     0.009600000000     0.776933333333     0          
T        Si     0.038300000000     0.014150000000     0.721133333333     0          
T        Si     0.110500000000     0.040450000000     0.844333333333     0          
T        Si     0.061100000000     0.040300000000     0.984033333333     0          
O        O      0.399900000000     0.177550000000     0.854333333333     0          
O        O      0.439550000000     0.161900000000     0.905966666667     0          
O        O      0.398350000000     0.125000000000     0.877400000000     0          
O        O      0.375000000000     0.166450000000     0.916666666667     0          
O        O      0.448100000000     0.177950000000     0.971733333333     0          
O        O      0.000000000000     0.165200000000     0.932500000000     0          
O        O      0.459150000000     0.125000000000     0.953566666667     0          
O        O      0.395500000000     0.214750000000     0.802933333333     0          
O        O      0.411900000000     0.268550000000     0.800000000000     0          
O        O      0.438550000000     0.232300000000     0.755500000000     0          
O        O      0.375000000000     0.246200000000     0.750000000000     0          
O        O      0.449450000000     0.214000000000     0.691233333333     0          
O        O      0.458750000000     0.267850000000     0.706700000000     0          
O        O      0.000000000000     0.229250000000     0.731166666667     0          
O        O      0.350700000000     0.214600000000     0.853500000000     0          
T        Si     0.403250000000     0.157650000000     0.888566666667     0          
T        Si     0.461650000000     0.157550000000     0.940966666667     0          
T        Si     0.405200000000     0.240400000000     0.776933333333     0          
T        Si     0.461700000000     0.235850000000     0.721133333333     0          
T        Si     0.389500000000     0.209550000000     0.844333333333     0          
T        Si     0.438900000000     0.209700000000     0.984033333333     0          
O        O      0.100100000000     0.427550000000     0.812333333333     0          
O        O      0.060450000000     0.411900000000     0.760700000000     0          
O        O      0.101650000000     0.375000000000     0.789266666667     0          
O        O      0.125000000000     0.416450000000     0.750000000000     0          
O        O      0.051900000000     0.427950000000     0.694933333333     0          
O        O      0.000000000000     0.415200000000     0.734166666667     0          
O        O      0.040850000000     0.375000000000     0.713100000000     0          
O        O      0.104500000000     0.464750000000     0.863733333333     0          
O        O      0.088100000000     0.018550000000     0.866666666667     0          
O        O      0.061450000000     0.482300000000     0.911166666667     0          
O        O      0.125000000000     0.496200000000     0.916666666667     0          
O        O      0.050550000000     0.464000000000     0.975433333333     0          
O        O      0.041250000000     0.017850000000     0.959966666667     0          
O        O      0.000000000000     0.479250000000     0.935500000000     0          
O        O      0.149300000000     0.464600000000     0.813166666667     0          
T        Si     0.096750000000     0.407650000000     0.778100000000     0          
T        Si     0.038350000000     0.407550000000     0.725700000000     0          
T        Si     0.094800000000     0.490400000000     0.889733333333     0          
T        Si     0.038300000000     0.485850000000     0.945533333333     0          
T        Si     0.110500000000     0.459550000000     0.822333333333     0          
T        Si     0.061100000000     0.459700000000     0.682633333333     0          
O        O      0.399900000000     0.322450000000     0.812333333333     0          
O        O      0.439550000000     0.338100000000     0.760700000000     0          
O        O      0.398350000000     0.375000000000     0.789266666667     0          
O        O      0.375000000000     0.333550000000     0.750000000000     0          
O        O      0.448100000000     0.322050000000     0.694933333333     0          
O        O      0.000000000000     0.334800000000     0.734166666667     0          
O        O      0.459150000000     0.375000000000     0.713100000000     0          
O        O      0.395500000000     0.285250000000     0.863733333333     0          
O        O      0.411900000000     0.231450000000     0.866666666667     0          
O        O      0.438550000000     0.267700000000     0.911166666667     0          
O        O      0.375000000000     0.253800000000     0.916666666667     0          
O        O      0.449450000000     0.286000000000     0.975433333333     0          
O        O      0.458750000000     0.232150000000     0.959966666667     0          
O        O      0.000000000000     0.270750000000     0.935500000000     0          
O        O      0.350700000000     0.285400000000     0.813166666667     0          
T        Si     0.403250000000     0.342350000000     0.778100000000     0          
T        Si     0.461650000000     0.342450000000     0.725700000000     0          
T        Si     0.405200000000     0.259600000000     0.889733333333     0          
T        Si     0.461700000000     0.264150000000     0.945533333333     0          
T        Si     0.389500000000     0.290450000000     0.822333333333     0          
T        Si     0.438900000000     0.290300000000     0.682633333333     0          
O        O      0.399900000000     0.427550000000     0.812333333333     0          
O        O      0.439550000000     0.411900000000     0.760700000000     0          
O        O      0.375000000000     0.416450000000     0.750000000000     0          
O        O      0.448100000000     0.427950000000     0.694933333333     0          
O        O      0.395500000000     0.464750000000     0.863733333333     0          
O        O      0.411900000000     0.018550000000     0.866666666667     0          
O        O      0.438550000000     0.482300000000     0.911166666667     0          
O        O      0.375000000000     0.496200000000     0.916666666667     0          
O        O      0.449450000000     0.464000000000     0.975433333333     0          
O        O      0.458750000000     0.017850000000     0.959966666667     0          
O        O      0.350700000000     0.464600000000     0.813166666667     0          
T        Si     0.403250000000     0.407650000000     0.778100000000     0          
T        Si     0.461650000000     0.407550000000     0.725700000000     0          
T        Si     0.405200000000     0.490400000000     0.889733333333     0          
T        Si     0.461700000000     0.485850000000     0.945533333333     0          
T        Si     0.389500000000     0.459550000000     0.822333333333     0          
T        Si     0.438900000000     0.459700000000     0.682633333333     0          
O        O      0.100100000000     0.322450000000     0.812333333333     0          
O        O      0.060450000000     0.338100000000     0.760700000000     0          
O        O      0.125000000000     0.333550000000     0.750000000000     0          
O        O      0.051900000000     0.322050000000     0.694933333333     0          
O        O      0.104500000000     0.285250000000     0.863733333333     0          
O        O      0.088100000000     0.231450000000     0.866666666667     0          
O        O      0.061450000000     0.267700000000     0.911166666667     0          
O        O      0.125000000000     0.253800000000     0.916666666667     0          
O        O      0.050550000000     0.286000000000     0.975433333333     0          
O        O      0.041250000000     0.232150000000     0.959966666667     0          
O        O      0.149300000000     0.285400000000     0.813166666667     0          
T        Si     0.096750000000     0.342350000000     0.778100000000     0          
T        Si     0.038350000000     0.342450000000     0.725700000000     0          
T        Si     0.094800000000     0.259600000000     0.889733333333     0          
T        Si     0.038300000000     0.264150000000     0.945533333333     0          
T        Si     0.110500000000     0.290450000000     0.822333333333     0          
T        Si     0.061100000000     0.290300000000     0.682633333333     0          
O        O      0.399900000000     0.072450000000     0.854333333333     0          
O        O      0.439550000000     0.088100000000     0.905966666667     0          
O        O      0.375000000000     0.083550000000     0.916666666667     0          
O        O      0.448100000000     0.072050000000     0.971733333333     0          
O        O      0.395500000000     0.035250000000     0.802933333333     0          
O        O      0.411900000000     0.481450000000     0.800000000000     0          
O        O      0.438550000000     0.017700000000     0.755500000000     0          
O        O      0.375000000000     0.003800000000     0.750000000000     0          
O        O      0.449450000000     0.036000000000     0.691233333333     0          
O        O      0.458750000000     0.482150000000     0.706700000000     0          
O        O      0.350700000000     0.035400000000     0.853500000000     0          
T        Si     0.403250000000     0.092350000000     0.888566666667     0          
T        Si     0.461650000000     0.092450000000     0.940966666667     0          
T        Si     0.405200000000     0.009600000000     0.776933333333     0          
T        Si     0.461700000000     0.014150000000     0.721133333333     0          
T        Si     0.389500000000     0.040450000000     0.844333333333     0          
T        Si     0.438900000000     0.040300000000     0.984033333333     0          
O        O      0.100100000000     0.177550000000     0.854333333333     0          
O        O      0.060450000000     0.161900000000     0.905966666667     0          
O        O      0.125000000000     0.166450000000     0.916666666667     0          
O        O      0.051900000000     0.177950000000     0.971733333333     0          
O        O      0.104500000000     0.214750000000     0.802933333333     0          
O        O      0.088100000000     0.268550000000     0.800000000000     0          
O        O      0.061450000000     0.232300000000     0.755500000000     0          
O        O      0.125000000000     0.246200000000     0.750000000000     0          
O        O      0.050550000000     0.214000000000     0.691233333333     0          
O        O      0.041250000000     0.267850000000     0.706700000000     0          
O        O      0.149300000000     0.214600000000     0.853500000000     0          
T        Si     0.096750000000     0.157650000000     0.888566666667     0          
T        Si     0.038350000000     0.157550000000     0.940966666667     0          
T        Si     0.094800000000     0.240400000000     0.776933333333     0          
T        Si     0.038300000000     0.235850000000     0.721133333333     0          
T        Si     0.110500000000     0.209550000000     0.844333333333     0          
T        Si     0.061100000000     0.209700000000     0.984033333333     0          
O        O      0.350100000000     0.322450000000     0.687666666667     0          
O        O      0.310450000000     0.338100000000     0.739300000000     0          
O        O      0.351650000000     0.375000000000     0.710733333333     0          
O        O      0.301900000000     0.322050000000     0.805066666667     0          
O        O      0.250000000000     0.334800000000     0.765833333333     0          
O        O      0.290850000000     0.375000000000     0.786900000000     0          
O        O      0.354500000000     0.285250000000     0.969600000000     0          
O        O      0.338100000000     0.231450000000     0.966666666667     0          
O        O      0.311450000000     0.267700000000     0.922166666667     0          
O        O      0.300550000000     0.286000000000     0.857900000000     0          
O        O      0.291250000000     0.232150000000     0.873366666667     0          
O        O      0.250000000000     0.270750000000     0.897833333333     0          
O        O      0.399300000000     0.285400000000     0.686833333333     0          
T        Si     0.346750000000     0.342350000000     0.721900000000     0          
T        Si     0.288350000000     0.342450000000     0.774300000000     0          
T        Si     0.344800000000     0.259600000000     0.943600000000     0          
T        Si     0.288300000000     0.264150000000     0.887800000000     0          
T        Si     0.360500000000     0.290450000000     0.677666666667     0          
T        Si     0.311100000000     0.290300000000     0.817366666667     0          
O        O      0.149900000000     0.427550000000     0.687666666667     0          
O        O      0.189550000000     0.411900000000     0.739300000000     0          
O        O      0.148350000000     0.375000000000     0.710733333333     0          
O        O      0.198100000000     0.427950000000     0.805066666667     0          
O        O      0.250000000000     0.415200000000     0.765833333333     0          
O        O      0.209150000000     0.375000000000     0.786900000000     0          
O        O      0.145500000000     0.464750000000     0.969600000000     0          
O        O      0.161900000000     0.018550000000     0.966666666667     0          
O        O      0.188550000000     0.482300000000     0.922166666667     0          
O        O      0.199450000000     0.464000000000     0.857900000000     0          
O        O      0.208750000000     0.017850000000     0.873366666667     0          
O        O      0.250000000000     0.479250000000     0.897833333333     0          
O        O      0.100700000000     0.464600000000     0.686833333333     0          
T        Si     0.153250000000     0.407650000000     0.721900000000     0          
T        Si     0.211650000000     0.407550000000     0.774300000000     0          
T        Si     0.155200000000     0.490400000000     0.943600000000     0          
T        Si     0.211700000000     0.485850000000     0.887800000000     0          
T        Si     0.139500000000     0.459550000000     0.677666666667     0          
T        Si     0.188900000000     0.459700000000     0.817366666667     0          
O        O      0.350100000000     0.177550000000     0.979000000000     0          
O        O      0.310450000000     0.161900000000     0.927366666667     0          
O        O      0.351650000000     0.125000000000     0.955933333333     0          
O        O      0.301900000000     0.177950000000     0.861600000000     0          
O        O      0.250000000000     0.165200000000     0.900833333333     0          
O        O      0.290850000000     0.125000000000     0.879766666667     0          
O        O      0.354500000000     0.214750000000     0.697066666667     0          
O        O      0.338100000000     0.268550000000     0.700000000000     0          
O        O      0.311450000000     0.232300000000     0.744500000000     0          
O        O      0.300550000000     0.214000000000     0.808766666667     0          
O        O      0.291250000000     0.267850000000     0.793300000000     0          
O        O      0.250000000000     0.229250000000     0.768833333333     0          
O        O      0.399300000000     0.214600000000     0.979833333333     0          
T        Si     0.346750000000     0.157650000000     0.944766666667     0          
T        Si     0.288350000000     0.157550000000     0.892366666667     0          
T        Si     0.344800000000     0.240400000000     0.723066666667     0          
T        Si     0.288300000000     0.235850000000     0.778866666667     0          
T        Si     0.360500000000     0.209550000000     0.989000000000     0          
T        Si     0.311100000000     0.209700000000     0.849300000000     0          
O        O      0.149900000000     0.072450000000     0.979000000000     0          
O        O      0.189550000000     0.088100000000     0.927366666667     0          
O        O      0.148350000000     0.125000000000     0.955933333333     0          
O        O      0.198100000000     0.072050000000     0.861600000000     0          
O        O      0.250000000000     0.084800000000     0.900833333333     0          
O        O      0.209150000000     0.125000000000     0.879766666667     0          
O        O      0.145500000000     0.035250000000     0.697066666667     0          
O        O      0.161900000000     0.481450000000     0.700000000000     0          
O        O      0.188550000000     0.017700000000     0.744500000000     0          
O        O      0.199450000000     0.036000000000     0.808766666667     0          
O        O      0.208750000000     0.482150000000     0.793300000000     0          
O        O      0.250000000000     0.020750000000     0.768833333333     0          
O        O      0.100700000000     0.035400000000     0.979833333333     0          
T        Si     0.153250000000     0.092350000000     0.944766666667     0          
T        Si     0.211650000000     0.092450000000     0.892366666667     0          
T        Si     0.155200000000     0.009600000000     0.723066666667     0          
T        Si     0.211700000000     0.014150000000     0.778866666667     0          
T        Si     0.139500000000     0.040450000000     0.989000000000     0          
T        Si     0.188900000000     0.040300000000     0.849300000000     0          
O        O      0.149900000000     0.177550000000     0.979000000000     0          
O        O      0.189550000000     0.161900000000     0.927366666667     0          
O        O      0.198100000000     0.177950000000     0.861600000000     0          
O        O      0.145500000000     0.214750000000     0.697066666667     0          
O        O      0.161900000000     0.268550000000     0.700000000000     0          
O        O      0.188550000000     0.232300000000     0.744500000000     0          
O        O      0.199450000000     0.214000000000     0.808766666667     0          
O        O      0.208750000000     0.267850000000     0.793300000000     0          
O        O      0.100700000000     0.214600000000     0.979833333333     0          
T        Si     0.153250000000     0.157650000000     0.944766666667     0          
T        Si     0.211650000000     0.157550000000     0.892366666667     0          
T        Si     0.155200000000     0.240400000000     0.723066666667     0          
T        Si     0.211700000000     0.235850000000     0.778866666667     0          
T        Si     0.139500000000     0.209550000000     0.989000000000     0          
T        Si     0.188900000000     0.209700000000     0.849300000000     0          
O        O      0.350100000000     0.072450000000     0.979000000000     0          
O        O      0.310450000000     0.088100000000     0.927366666667     0          
O        O      0.301900000000     0.072050000000     0.861600000000     0          
O        O      0.354500000000     0.035250000000     0.697066666667     0          
O        O      0.338100000000     0.481450000000     0.700000000000     0          
O        O      0.311450000000     0.017700000000     0.744500000000     0          
O        O      0.300550000000     0.036000000000     0.808766666667     0          
O        O      0.291250000000     0.482150000000     0.793300000000     0          
O        O      0.399300000000     0.035400000000     0.979833333333     0          
T        Si     0.346750000000     0.092350000000     0.944766666667     0          
T        Si     0.288350000000     0.092450000000     0.892366666667     0          
T        Si     0.344800000000     0.009600000000     0.723066666667     0          
T        Si     0.288300000000     0.014150000000     0.778866666667     0          
T        Si     0.360500000000     0.040450000000     0.989000000000     0          
T        Si     0.311100000000     0.040300000000     0.849300000000     0          
O        O      0.149900000000     0.322450000000     0.687666666667     0          
O        O      0.189550000000     0.338100000000     0.739300000000     0          
O        O      0.198100000000     0.322050000000     0.805066666667     0          
O        O      0.145500000000     0.285250000000     0.969600000000     0          
O        O      0.161900000000     0.231450000000     0.966666666667     0          
O        O      0.188550000000     0.267700000000     0.922166666667     0          
O        O      0.199450000000     0.286000000000     0.857900000000     0          
O        O      0.208750000000     0.232150000000     0.873366666667     0          
O        O      0.100700000000     0.285400000000     0.686833333333     0          
T        Si     0.153250000000     0.342350000000     0.721900000000     0          
T        Si     0.211650000000     0.342450000000     0.774300000000     0          
T        Si     0.155200000000     0.259600000000     0.943600000000     0          
T        Si     0.211700000000     0.264150000000     0.887800000000     0          
T        Si     0.139500000000     0.290450000000     0.677666666667     0          
T        Si     0.188900000000     0.290300000000     0.817366666667     0          
O        O      0.350100000000     0.427550000000     0.687666666667     0          
O        O      0.310450000000     0.411900000000     0.739300000000     0          
O        O      0.301900000000     0.427950000000     0.805066666667     0          
O        O      0.354500000000     0.464750000000     0.969600000000     0          
O        O      0.338100000000     0.018550000000     0.966666666667     0          
O        O      0.311450000000     0.482300000000     0.922166666667     0          
O        O      0.300550000000     0.464000000000     0.857900000000     0          
O        O      0.291250000000     0.017850000000     0.873366666667     0          
O        O      0.399300000000     0.464600000000     0.686833333333     0          
T        Si     0.346750000000     0.407650000000     0.721900000000     0          
T        Si     0.288350000000     0.407550000000     0.774300000000     0          
T        Si     0.344800000000     0.490400000000     0.943600000000     0          
T        Si     0.288300000000     0.485850000000     0.887800000000     0          
T        Si     0.360500000000     0.459550000000     0.677666666667     0          
T        Si     0.311100000000     0.459700000000     0.817366666667     0          
O        O      0.100100000000     0.572450000000     0.187666666667     0          
O        O      0.060450000000     0.588100000000     0.239300000000     0          
O        O      0.101650000000     0.625000000000     0.210733333333     0          
O        O      0.125000000000     0.583550000000     0.250000000000     0          
O        O      0.051900000000     0.572050000000     0.305066666667     0          
O        O      0.000000000000     0.584800000000     0.265833333333     0          
O        O      0.040850000000     0.625000000000     0.286900000000     0          
O        O      0.104500000000     0.535250000000     0.136266666667     0          
O        O      0.088100000000     0.981450000000     0.133333333333     0          
O        O      0.061450000000     0.517700000000     0.088833333333     0          
O        O      0.125000000000     0.503800000000     0.083333333333     0          
O        O      0.050550000000     0.536000000000     0.024566666667     0          
O        O      0.041250000000     0.982150000000     0.040033333333     0          
O        O      0.000000000000     0.520750000000     0.064500000000     0          
O        O      0.149300000000     0.535400000000     0.186833333333     0          
T        Si     0.096750000000     0.592350000000     0.221900000000     0          
T        Si     0.038350000000     0.592450000000     0.274300000000     0          
T        Si     0.094800000000     0.509600000000     0.110266666667     0          
T        Si     0.038300000000     0.514150000000     0.054466666667     0          
T        Si     0.110500000000     0.540450000000     0.177666666667     0          
T        Si     0.061100000000     0.540300000000     0.317366666667     0          
O        O      0.399900000000     0.677550000000     0.187666666667     0          
O        O      0.439550000000     0.661900000000     0.239300000000     0          
O        O      0.398350000000     0.625000000000     0.210733333333     0          
O        O      0.375000000000     0.666450000000     0.250000000000     0          
O        O      0.448100000000     0.677950000000     0.305066666667     0          
O        O      0.000000000000     0.665200000000     0.265833333333     0          
O        O      0.459150000000     0.625000000000     0.286900000000     0          
O        O      0.395500000000     0.714750000000     0.136266666667     0          
O        O      0.411900000000     0.768550000000     0.133333333333     0          
O        O      0.438550000000     0.732300000000     0.088833333333     0          
O        O      0.375000000000     0.746200000000     0.083333333333     0          
O        O      0.449450000000     0.714000000000     0.024566666667     0          
O        O      0.458750000000     0.767850000000     0.040033333333     0          
O        O      0.000000000000     0.729250000000     0.064500000000     0          
O        O      0.350700000000     0.714600000000     0.186833333333     0          
T        Si     0.403250000000     0.657650000000     0.221900000000     0          
T        Si     0.461650000000     0.657550000000     0.274300000000     0          
T        Si     0.405200000000     0.740400000000     0.110266666667     0          
T        Si     0.461700000000     0.735850000000     0.054466666667     0          
T        Si     0.389500000000     0.709550000000     0.177666666667     0          
T        Si     0.438900000000     0.709700000000     0.317366666667     0          
O        O      0.100100000000     0.927550000000     0.145666666667     0          
O        O      0.060450000000     0.911900000000     0.094033333333     0          
O        O      0.101650000000     0.875000000000     0.122600000000     0          
O        O      0.125000000000     0.916450000000     0.083333333333     0          
O        O      0.051900000000     0.927950000000     0.028266666667     0          
O        O      0.000000000000     0.915200000000     0.067500000000     0          
O        O      0.040850000000     0.875000000000     0.046433333333     0          
O        O      0.104500000000     0.964750000000     0.197066666667     0          
O        O      0.088100000000     0.518550000000     0.200000000000     0          
O        O      0.061450000000     0.982300000000     0.244500000000     0          
O        O      0.125000000000     0.996200000000     0.250000000000     0          
O        O      0.050550000000     0.964000000000     0.308766666667     0          
O        O      0.041250000000     0.517850000000     0.293300000000     0          
O        O      0.000000000000     0.979250000000     0.268833333333     0          
O        O      0.149300000000     0.964600000000     0.146500000000     0          
T        Si     0.096750000000     0.907650000000     0.111433333333     0          
T        Si     0.038350000000     0.907550000000     0.059033333333     0          
T        Si     0.094800000000     0.990400000000     0.223066666667     0          
T        Si     0.038300000000     0.985850000000     0.278866666667     0          
T        Si     0.110500000000     0.959550000000     0.155666666667     0          
T        Si     0.061100000000     0.959700000000     0.015966666667     0          
O        O      0.399900000000     0.822450000000     0.145666666667     0          
O        O      0.439550000000     0.838100000000     0.094033333333     0          
O        O      0.398350000000     0.875000000000     0.122600000000     0          
O        O      0.375000000000     0.833550000000     0.083333333333     0          
O        O      0.448100000000     0.822050000000     0.028266666667     0          
O        O      0.000000000000     0.834800000000     0.067500000000     0          
O        O      0.459150000000     0.875000000000     0.046433333333     0          
O        O      0.395500000000     0.785250000000     0.197066666667     0          
O        O      0.411900000000     0.731450000000     0.200000000000     0          
O        O      0.438550000000     0.767700000000     0.244500000000     0          
O        O      0.375000000000     0.753800000000     0.250000000000     0          
O        O      0.449450000000     0.786000000000     0.308766666667     0          
O        O      0.458750000000     0.732150000000     0.293300000000     0          
O        O      0.000000000000     0.770750000000     0.268833333333     0          
O        O      0.350700000000     0.785400000000     0.146500000000     0          
T        Si     0.403250000000     0.842350000000     0.111433333333     0          
T        Si     0.461650000000     0.842450000000     0.059033333333     0          
T        Si     0.405200000000     0.759600000000     0.223066666667     0          
T        Si     0.461700000000     0.764150000000     0.278866666667     0          
T        Si     0.389500000000     0.790450000000     0.155666666667     0          
T        Si     0.438900000000     0.790300000000     0.015966666667     0          
O        O      0.399900000000     0.927550000000     0.145666666667     0          
O        O      0.439550000000     0.911900000000     0.094033333333     0          
O        O      0.375000000000     0.916450000000     0.083333333333     0          
O        O      0.448100000000     0.927950000000     0.028266666667     0          
O        O      0.395500000000     0.964750000000     0.197066666667     0          
O        O      0.411900000000     0.518550000000     0.200000000000     0          
O        O      0.438550000000     0.982300000000     0.244500000000     0          
O        O      0.375000000000     0.996200000000     0.250000000000     0          
O        O      0.449450000000     0.964000000000     0.308766666667     0          
O        O      0.458750000000     0.517850000000     0.293300000000     0          
O        O      0.350700000000     0.964600000000     0.146500000000     0          
T        Si     0.403250000000     0.907650000000     0.111433333333     0          
T        Si     0.461650000000     0.907550000000     0.059033333333     0          
T        Si     0.405200000000     0.990400000000     0.223066666667     0          
T        Si     0.461700000000     0.985850000000     0.278866666667     0          
T        Si     0.389500000000     0.959550000000     0.155666666667     0          
T        Si     0.438900000000     0.959700000000     0.015966666667     0          
O        O      0.100100000000     0.822450000000     0.145666666667     0          
O        O      0.060450000000     0.838100000000     0.094033333333     0          
O        O      0.125000000000     0.833550000000     0.083333333333     0          
O        O      0.051900000000     0.822050000000     0.028266666667     0          
O        O      0.104500000000     0.785250000000     0.197066666667     0          
O        O      0.088100000000     0.731450000000     0.200000000000     0          
O        O      0.061450000000     0.767700000000     0.244500000000     0          
O        O      0.125000000000     0.753800000000     0.250000000000     0          
O        O      0.050550000000     0.786000000000     0.308766666667     0          
O        O      0.041250000000     0.732150000000     0.293300000000     0          
O        O      0.149300000000     0.785400000000     0.146500000000     0          
T        Si     0.096750000000     0.842350000000     0.111433333333     0          
T        Si     0.038350000000     0.842450000000     0.059033333333     0          
T        Si     0.094800000000     0.759600000000     0.223066666667     0          
T        Si     0.038300000000     0.764150000000     0.278866666667     0          
T        Si     0.110500000000     0.790450000000     0.155666666667     0          
T        Si     0.061100000000     0.790300000000     0.015966666667     0          
O        O      0.399900000000     0.572450000000     0.187666666667     0          
O        O      0.439550000000     0.588100000000     0.239300000000     0          
O        O      0.375000000000     0.583550000000     0.250000000000     0          
O        O      0.448100000000     0.572050000000     0.305066666667     0          
O        O      0.395500000000     0.535250000000     0.136266666667     0          
O        O      0.411900000000     0.981450000000     0.133333333333     0          
O        O      0.438550000000     0.517700000000     0.088833333333     0          
O        O      0.375000000000     0.503800000000     0.083333333333     0          
O        O      0.449450000000     0.536000000000     0.024566666667     0          
O        O      0.458750000000     0.982150000000     0.040033333333     0          
O        O      0.350700000000     0.535400000000     0.186833333333     0          
T        Si     0.403250000000     0.592350000000     0.221900000000     0          
T        Si     0.461650000000     0.592450000000     0.274300000000     0          
T        Si     0.405200000000     0.509600000000     0.110266666667     0          
T        Si     0.461700000000     0.514150000000     0.054466666667     0          
T        Si     0.389500000000     0.540450000000     0.177666666667     0          
T        Si     0.438900000000     0.540300000000     0.317366666667     0          
O        O      0.100100000000     0.677550000000     0.187666666667     0          
O        O      0.060450000000     0.661900000000     0.239300000000     0          
O        O      0.125000000000     0.666450000000     0.250000000000     0          
O        O      0.051900000000     0.677950000000     0.305066666667     0          
O        O      0.104500000000     0.714750000000     0.136266666667     0          
O        O      0.088100000000     0.768550000000     0.133333333333     0          
O        O      0.061450000000     0.732300000000     0.088833333333     0          
O        O      0.125000000000     0.746200000000     0.083333333333     0          
O        O      0.050550000000     0.714000000000     0.024566666667     0          
O        O      0.041250000000     0.767850000000     0.040033333333     0          
O        O      0.149300000000     0.714600000000     0.186833333333     0          
T        Si     0.096750000000     0.657650000000     0.221900000000     0          
T        Si     0.038350000000     0.657550000000     0.274300000000     0          
T        Si     0.094800000000     0.740400000000     0.110266666667     0          
T        Si     0.038300000000     0.735850000000     0.054466666667     0          
T        Si     0.110500000000     0.709550000000     0.177666666667     0          
T        Si     0.061100000000     0.709700000000     0.317366666667     0          
O        O      0.350100000000     0.822450000000     0.021000000000     0          
O        O      0.310450000000     0.838100000000     0.072633333333     0          
O        O      0.351650000000     0.875000000000     0.044066666667     0          
O        O      0.301900000000     0.822050000000     0.138400000000     0          
O        O      0.250000000000     0.834800000000     0.099166666667     0          
O        O      0.290850000000     0.875000000000     0.120233333333     0          
O        O      0.354500000000     0.785250000000     0.302933333333     0          
O        O      0.338100000000     0.731450000000     0.300000000000     0          
O        O      0.311450000000     0.767700000000     0.255500000000     0          
O        O      0.300550000000     0.786000000000     0.191233333333     0          
O        O      0.291250000000     0.732150000000     0.206700000000     0          
O        O      0.250000000000     0.770750000000     0.231166666667     0          
O        O      0.399300000000     0.785400000000     0.020166666667     0          
T        Si     0.346750000000     0.842350000000     0.055233333333     0          
T        Si     0.288350000000     0.842450000000     0.107633333333     0          
T        Si     0.344800000000     0.759600000000     0.276933333333     0          
T        Si     0.288300000000     0.764150000000     0.221133333333     0          
T        Si     0.360500000000     0.790450000000     0.011000000000     0          
T        Si     0.311100000000     0.790300000000     0.150700000000     0          
O        O      0.149900000000     0.927550000000     0.021000000000     0          
O        O      0.189550000000     0.911900000000     0.072633333333     0          
O        O      0.148350000000     0.875000000000     0.044066666667     0          
O        O      0.198100000000     0.927950000000     0.138400000000     0          
O        O      0.250000000000     0.915200000000     0.099166666667     0          
O        O      0.209150000000     0.875000000000     0.120233333333     0          
O        O      0.145500000000     0.964750000000     0.302933333333     0          
O        O      0.161900000000     0.518550000000     0.300000000000     0          
O        O      0.188550000000     0.982300000000     0.255500000000     0          
O        O      0.199450000000     0.964000000000     0.191233333333     0          
O        O      0.208750000000     0.517850000000     0.206700000000     0          
O        O      0.250000000000     0.979250000000     0.231166666667     0          
O        O      0.100700000000     0.964600000000     0.020166666667     0          
T        Si     0.153250000000     0.907650000000     0.055233333333     0          
T        Si     0.211650000000     0.907550000000     0.107633333333     0          
T        Si     0.155200000000     0.990400000000     0.276933333333     0          
T        Si     0.211700000000     0.985850000000     0.221133333333     0          
T        Si     0.139500000000     0.959550000000     0.011000000000     0          
T        Si     0.188900000000     0.959700000000     0.150700000000     0          
O        O      0.350100000000     0.677550000000     0.312333333333     0          
O        O      0.310450000000     0.661900000000     0.260700000000     0          
O        O      0.351650000000     0.625000000000     0.289266666667     0          
O        O      0.301900000000     0.677950000000     0.194933333333     0          
O        O      0.250000000000     0.665200000000     0.234166666667     0          
O        O      0.290850000000     0.625000000000     0.213100000000     0          
O        O      0.354500000000     0.714750000000     0.030400000000     0          
O        O      0.338100000000     0.768550000000     0.033333333333     0          
O        O      0.311450000000     0.732300000000     0.077833333333     0          
O        O      0.300550000000     0.714000000000     0.142100000000     0          
O        O      0.291250000000     0.767850000000     0.126633333333     0          
O        O      0.250000000000     0.729250000000     0.102166666667     0          
O        O      0.399300000000     0.714600000000     0.313166666667     0          
T        Si     0.346750000000     0.657650000000     0.278100000000     0          
T        Si     0.288350000000     0.657550000000     0.225700000000     0          
T        Si     0.344800000000     0.740400000000     0.056400000000     0          
T        Si     0.288300000000     0.735850000000     0.112200000000     0          
T        Si     0.360500000000     0.709550000000     0.322333333333     0          
T        Si     0.311100000000     0.709700000000     0.182633333333     0          
O        O      0.149900000000     0.572450000000     0.312333333333     0          
O        O      0.189550000000     0.588100000000     0.260700000000     0          
O        O      0.148350000000     0.625000000000     0.289266666667     0          
O        O      0.198100000000     0.572050000000     0.194933333333     0          
O        O      0.250000000000     0.584800000000     0.234166666667     0          
O        O      0.209150000000     0.625000000000     0.213100000000     0          
O        O      0.145500000000     0.535250000000     0.030400000000     0          
O        O      0.161900000000     0.981450000000     0.033333333333     0          
O        O      0.188550000000     0.517700000000     0.077833333333     0          
O        O      0.199450000000     0.536000000000     0.142100000000     0          
O        O      0.208750000000     0.982150000000     0.126633333333     0          
O        O      0.250000000000     0.520750000000     0.102166666667     0          
O        O      0.100700000000     0.535400000000     0.313166666667     0          
T        Si     0.153250000000     0.592350000000     0.278100000000     0          
T        Si     0.211650000000     0.592450000000     0.225700000000     0          
T        Si     0.155200000000     0.509600000000     0.056400000000     0          
T        Si     0.211700000000     0.514150000000     0.112200000000     0          
T        Si     0.139500000000     0.540450000000     0.322333333333     0          
T        Si     0.188900000000     0.540300000000     0.182633333333     0          
O        O      0.149900000000     0.677550000000     0.312333333333     0          
O        O      0.189550000000     0.661900000000     0.260700000000     0          
O        O      0.198100000000     0.677950000000     0.194933333333     0          
O        O      0.145500000000     0.714750000000     0.030400000000     0          
O        O      0.161900000000     0.768550000000     0.033333333333     0          
O        O      0.188550000000     0.732300000000     0.077833333333     0          
O        O      0.199450000000     0.714000000000     0.142100000000     0          
O        O      0.208750000000     0.767850000000     0.126633333333     0          
O        O      0.100700000000     0.714600000000     0.313166666667     0          
T        Si     0.153250000000     0.657650000000     0.278100000000     0          
T        Si     0.211650000000     0.657550000000     0.225700000000     0          
T        Si     0.155200000000     0.740400000000     0.056400000000     0          
T        Si     0.211700000000     0.735850000000     0.112200000000     0          
T        Si     0.139500000000     0.709550000000     0.322333333333     0          
T        Si     0.188900000000     0.709700000000     0.182633333333     0          
O        O      0.350100000000     0.572450000000     0.312333333333     0          
O        O      0.310450000000     0.588100000000     0.260700000000     0          
O        O      0.301900000000     0.572050000000     0.194933333333     0          
O        O      0.354500000000     0.535250000000     0.030400000000     0          
O        O      0.338100000000     0.981450000000     0.033333333333     0          
O        O      0.311450000000     0.517700000000     0.077833333333     0          
O        O      0.300550000000     0.536000000000     0.142100000000     0          
O        O      0.291250000000     0.982150000000     0.126633333333     0          
O        O      0.399300000000     0.535400000000     0.313166666667     0          
T        Si     0.346750000000     0.592350000000     0.278100000000     0          
T        Si     0.288350000000     0.592450000000     0.225700000000     0          
T        Si     0.344800000000     0.509600000000     0.056400000000     0          
T        Si     0.288300000000     0.514150000000     0.112200000000     0          
T        Si     0.360500000000     0.540450000000     0.322333333333     0          
T        Si     0.311100000000     0.540300000000     0.182633333333     0          
O        O      0.149900000000     0.822450000000     0.021000000000     0          
O        O      0.189550000000     0.838100000000     0.072633333333     0          
O        O      0.198100000000     0.822050000000     0.138400000000     0          
O        O      0.145500000000     0.785250000000     0.302933333333     0          
O        O      0.161900000000     0.731450000000     0.300000000000     0          
O        O      0.188550000000     0.767700000000     0.255500000000     0          
O        O      0.199450000000     0.786000000000     0.191233333333     0          
O        O      0.208750000000     0.732150000000     0.206700000000     0          
O        O      0.100700000000     0.785400000000     0.020166666667     0          
T        Si     0.153250000000     0.842350000000     0.055233333333     0          
T        Si     0.211650000000     0.842450000000     0.107633333333     0          
T        Si     0.155200000000     0.759600000000     0.276933333333     0          
T        Si     0.211700000000     0.764150000000     0.221133333333     0          
T        Si     0.139500000000     0.790450000000     0.011000000000     0          
T        Si     0.188900000000     0.790300000000     0.150700000000     0          
O        O      0.350100000000     0.927550000000     0.021000000000     0          
O        O      0.310450000000     0.911900000000     0.072633333333     0          
O        O      0.301900000000     0.927950000000     0.138400000000     0          
O        O      0.354500000000     0.964750000000     0.302933333333     0          
O        O      0.338100000000     0.518550000000     0.300000000000     0          
O        O      0.311450000000     0.982300000000     0.255500000000     0          
O        O      0.300550000000     0.964000000000     0.191233333333     0          
O        O      0.291250000000     0.517850000000     0.206700000000     0          
O        O      0.399300000000     0.964600000000     0.020166666667     0          
T        Si     0.346750000000     0.907650000000     0.055233333333     0          
T        Si     0.288350000000     0.907550000000     0.107633333333     0          
T        Si     0.344800000000     0.990400000000     0.276933333333     0          
T        Si     0.288300000000     0.985850000000     0.221133333333     0          
T        Si     0.360500000000     0.959550000000     0.011000000000     0          
T        Si     0.311100000000     0.959700000000     0.150700000000     0          
O        O      0.100100000000     0.572450000000     0.521000000000     0          
O        O      0.060450000000     0.588100000000     0.572633333333     0          
O        O      0.101650000000     0.625000000000     0.544066666667     0          
O        O      0.125000000000     0.583550000000     0.583333333333     0          
O        O      0.051900000000     0.572050000000     0.638400000000     0          
O        O      0.000000000000     0.584800000000     0.599166666667     0          
O        O      0.040850000000     0.625000000000     0.620233333333     0          
O        O      0.104500000000     0.535250000000     0.469600000000     0          
O        O      0.088100000000     0.981450000000     0.466666666667     0          
O        O      0.061450000000     0.517700000000     0.422166666667     0          
O        O      0.125000000000     0.503800000000     0.416666666667     0          
O        O      0.050550000000     0.536000000000     0.357900000000     0          
O        O      0.041250000000     0.982150000000     0.373366666667     0          
O        O      0.000000000000     0.520750000000     0.397833333333     0          
O        O      0.149300000000     0.535400000000     0.520166666667     0          
T        Si     0.096750000000     0.592350000000     0.555233333333     0          
T        Si     0.038350000000     0.592450000000     0.607633333333     0          
T        Si     0.094800000000     0.509600000000     0.443600000000     0          
T        Si     0.038300000000     0.514150000000     0.387800000000     0          
T        Si     0.110500000000     0.540450000000     0.511000000000     0          
T        Si     0.061100000000     0.540300000000     0.650700000000     0          
O        O      0.399900000000     0.677550000000     0.521000000000     0          
O        O      0.439550000000     0.661900000000     0.572633333333     0          
O        O      0.398350000000     0.625000000000     0.544066666667     0          
O        O      0.375000000000     0.666450000000     0.583333333333     0          
O        O      0.448100000000     0.677950000000     0.638400000000     0          
O        O      0.000000000000     0.665200000000     0.599166666667     0          
O        O      0.459150000000     0.625000000000     0.620233333333     0          
O        O      0.395500000000     0.714750000000     0.469600000000     0          
O        O      0.411900000000     0.768550000000     0.466666666667     0          
O        O      0.438550000000     0.732300000000     0.422166666667     0          
O        O      0.375000000000     0.746200000000     0.416666666667     0          
O        O      0.449450000000     0.714000000000     0.357900000000     0          
O        O      0.458750000000     0.767850000000     0.373366666667     0          
O        O      0.000000000000     0.729250000000     0.397833333333     0          
O        O      0.350700000000     0.714600000000     0.520166666667     0          
T        Si     0.403250000000     0.657650000000     0.555233333333     0          
T        Si     0.461650000000     0.657550000000     0.607633333333     0          
T        Si     0.405200000000     0.740400000000     0.443600000000     0          
T        Si     0.461700000000     0.735850000000     0.387800000000     0          
T        Si     0.389500000000     0.709550000000     0.511000000000     0          
T        Si     0.438900000000     0.709700000000     0.650700000000     0          
O        O      0.100100000000     0.927550000000     0.479000000000     0          
O        O      0.060450000000     0.911900000000     0.427366666667     0          
O        O      0.101650000000     0.875000000000     0.455933333333     0          
O        O      0.125000000000     0.916450000000     0.416666666667     0          
O        O      0.051900000000     0.927950000000     0.361600000000     0          
O        O      0.000000000000     0.915200000000     0.400833333333     0          
O        O      0.040850000000     0.875000000000     0.379766666667     0          
O        O      0.104500000000     0.964750000000     0.530400000000     0          
O        O      0.088100000000     0.518550000000     0.533333333333     0          
O        O      0.061450000000     0.982300000000     0.577833333333     0          
O        O      0.125000000000     0.996200000000     0.583333333333     0          
O        O      0.050550000000     0.964000000000     0.642100000000     0          
O        O      0.041250000000     0.517850000000     0.626633333333     0          
O        O      0.000000000000     0.979250000000     0.602166666667     0          
O        O      0.149300000000     0.964600000000     0.479833333333     0          
T        Si     0.096750000000     0.907650000000     0.444766666667     0          
T        Si     0.038350000000     0.907550000000     0.392366666667     0          
T        Si     0.094800000000     0.990400000000     0.556400000000     0          
T        Si     0.038300000000     0.985850000000     0.612200000000     0          
T        Si     0.110500000000     0.959550000000     0.489000000000     0          
T        Si     0.061100000000     0.959700000000     0.349300000000     0          
O        O      0.399900000000     0.822450000000     0.479000000000     0          
O        O      0.439550000000     0.838100000000     0.427366666667     0          
O        O      0.398350000000     0.875000000000     0.455933333333     0          
O        O      0.375000000000     0.833550000000     0.416666666667     0          
O        O      0.448100000000     0.822050000000     0.361600000000     0          
O        O      0.000000000000     0.834800000000     0.400833333333     0          
O        O      0.459150000000     0.875000000000     0.379766666667     0          
O        O      0.395500000000     0.785250000000     0.530400000000     0          
O        O      0.411900000000     0.731450000000     0.533333333333     0          
O        O      0.438550000000     0.767700000000     0.577833333333     0          
O        O      0.375000000000     0.753800000000     0.583333333333     0          
O        O      0.449450000000     0.786000000000     0.642100000000     0          
O        O      0.458750000000     0.732150000000     0.626633333333     0          
O        O      0.000000000000     0.770750000000     0.602166666667     0          
O        O      0.350700000000     0.785400000000     0.479833333333     0          
T        Si     0.403250000000     0.842350000000     0.444766666667     0          
T        Si     0.461650000000     0.842450000000     0.392366666667     0          
T        Si     0.405200000000     0.759600000000     0.556400000000     0          
T        Si     0.461700000000     0.764150000000     0.612200000000     0          
T        Si     0.389500000000     0.790450000000     0.489000000000     0          
T        Si     0.438900000000     0.790300000000     0.349300000000     0          
O        O      0.399900000000     0.927550000000     0.479000000000     0          
O        O      0.439550000000     0.911900000000     0.427366666667     0          
O        O      0.375000000000     0.916450000000     0.416666666667     0          
O        O      0.448100000000     0.927950000000     0.361600000000     0          
O        O      0.395500000000     0.964750000000     0.530400000000     0          
O        O      0.411900000000     0.518550000000     0.533333333333     0          
O        O      0.438550000000     0.982300000000     0.577833333333     0          
O        O      0.375000000000     0.996200000000     0.583333333333     0          
O        O      0.449450000000     0.964000000000     0.642100000000     0          
O        O      0.458750000000     0.517850000000     0.626633333333     0          
O        O      0.350700000000     0.964600000000     0.479833333333     0          
T        Si     0.403250000000     0.907650000000     0.444766666667     0          
T        Si     0.461650000000     0.907550000000     0.392366666667     0          
T        Si     0.405200000000     0.990400000000     0.556400000000     0          
T        Si     0.461700000000     0.985850000000     0.612200000000     0          
T        Si     0.389500000000     0.959550000000     0.489000000000     0          
T        Si     0.438900000000     0.959700000000     0.349300000000     0          
O        O      0.100100000000     0.822450000000     0.479000000000     0          
O        O      0.060450000000     0.838100000000     0.427366666667     0          
O        O      0.125000000000     0.833550000000     0.416666666667     0          
O        O      0.051900000000     0.822050000000     0.361600000000     0          
O        O      0.104500000000     0.785250000000     0.530400000000     0          
O        O      0.088100000000     0.731450000000     0.533333333333     0          
O        O      0.061450000000     0.767700000000     0.577833333333     0          
O        O      0.125000000000     0.753800000000     0.583333333333     0          
O        O      0.050550000000     0.786000000000     0.642100000000     0          
O        O      0.041250000000     0.732150000000     0.626633333333     0          
O        O      0.149300000000     0.785400000000     0.479833333333     0          
T        Si     0.096750000000     0.842350000000     0.444766666667     0          
T        Si     0.038350000000     0.842450000000     0.392366666667     0          
T        Si     0.094800000000     0.759600000000     0.556400000000     0          
T        Si     0.038300000000     0.764150000000     0.612200000000     0          
T        Si     0.110500000000     0.790450000000     0.489000000000     0          
T        Si     0.061100000000     0.790300000000     0.349300000000     0          
O        O      0.399900000000     0.572450000000     0.521000000000     0          
O        O      0.439550000000     0.588100000000     0.572633333333     0          
O        O      0.375000000000     0.583550000000     0.583333333333     0          
O        O      0.448100000000     0.572050000000     0.638400000000     0          
O        O      0.395500000000     0.535250000000     0.469600000000     0          
O        O      0.411900000000     0.981450000000     0.466666666667     0          
O        O      0.438550000000     0.517700000000     0.422166666667     0          
O        O      0.375000000000     0.503800000000     0.416666666667     0          
O        O      0.449450000000     0.536000000000     0.357900000000     0          
O        O      0.458750000000     0.982150000000     0.373366666667     0          
O        O      0.350700000000     0.535400000000     0.520166666667     0          
T        Si     0.403250000000     0.592350000000     0.555233333333     0          
T        Si     0.461650000000     0.592450000000     0.607633333333     0          
T        Si     0.405200000000     0.509600000000     0.443600000000     0          
T        Si     0.461700000000     0.514150000000     0.387800000000     0          
T        Si     0.389500000000     0.540450000000     0.511000000000     0          
T        Si     0.438900000000     0.540300000000     0.650700000000     0          
O        O      0.100100000000     0.677550000000     0.521000000000     0          
O        O      0.060450000000     0.661900000000     0.572633333333     0          
O        O      0.125000000000     0.666450000000     0.583333333333     0          
O        O      0.051900000000     0.677950000000     0.638400000000     0          
O        O      0.104500000000     0.714750000000     0.469600000000     0          
O        O      0.088100000000     0.768550000000     0.466666666667     0          
O        O      0.061450000000     0.732300000000     0.422166666667     0          
O        O      0.125000000000     0.746200000000     0.416666666667     0          
O        O      0.050550000000     0.714000000000     0.357900000000     0          
O        O      0.041250000000     0.767850000000     0.373366666667     0          
O        O      0.149300000000     0.714600000000     0.520166666667     0          
T        Si     0.096750000000     0.657650000000     0.555233333333     0          
T        Si     0.038350000000     0.657550000000     0.607633333333     0          
T        Si     0.094800000000     0.740400000000     0.443600000000     0          
T        Si     0.038300000000     0.735850000000     0.387800000000     0          
T        Si     0.110500000000     0.709550000000     0.511000000000     0          
T        Si     0.061100000000     0.709700000000     0.650700000000     0          
O        O      0.350100000000     0.822450000000     0.354333333333     0          
O        O      0.310450000000     0.838100000000     0.405966666667     0          
O        O      0.351650000000     0.875000000000     0.377400000000     0          
O        O      0.301900000000     0.822050000000     0.471733333333     0          
O        O      0.250000000000     0.834800000000     0.432500000000     0          
O        O      0.290850000000     0.875000000000     0.453566666667     0          
O        O      0.354500000000     0.785250000000     0.636266666667     0          
O        O      0.338100000000     0.731450000000     0.633333333333     0          
O        O      0.311450000000     0.767700000000     0.588833333333     0          
O        O      0.300550000000     0.786000000000     0.524566666667     0          
O        O      0.291250000000     0.732150000000     0.540033333333     0          
O        O      0.250000000000     0.770750000000     0.564500000000     0          
O        O      0.399300000000     0.785400000000     0.353500000000     0          
T        Si     0.346750000000     0.842350000000     0.388566666667     0          
T        Si     0.288350000000     0.842450000000     0.440966666667     0          
T        Si     0.344800000000     0.759600000000     0.610266666667     0          
T        Si     0.288300000000     0.764150000000     0.554466666667     0          
T        Si     0.360500000000     0.790450000000     0.344333333333     0          
T        Si     0.311100000000     0.790300000000     0.484033333333     0          
O        O      0.149900000000     0.927550000000     0.354333333333     0          
O        O      0.189550000000     0.911900000000     0.405966666667     0          
O        O      0.148350000000     0.875000000000     0.377400000000     0          
O        O      0.198100000000     0.927950000000     0.471733333333     0          
O        O      0.250000000000     0.915200000000     0.432500000000     0          
O        O      0.209150000000     0.875000000000     0.453566666667     0          
O        O      0.145500000000     0.964750000000     0.636266666667     0          
O        O      0.161900000000     0.518550000000     0.633333333333     0          
O        O      0.188550000000     0.982300000000     0.588833333333     0          
O        O      0.199450000000     0.964000000000     0.524566666667     0          
O        O      0.208750000000     0.517850000000     0.540033333333     0          
O        O      0.250000000000     0.979250000000     0.564500000000     0          
O        O      0.100700000000     0.964600000000     0.353500000000     0          
T        Si     0.153250000000     0.907650000000     0.388566666667     0          
T        Si     0.211650000000     0.907550000000     0.440966666667     0          
T        Si     0.155200000000     0.990400000000     0.610266666667     0          
T        Si     0.211700000000     0.985850000000     0.554466666667     0          
T        Si     0.139500000000     0.959550000000     0.344333333333     0          
T        Si     0.188900000000     0.959700000000     0.484033333333     0          
O        O      0.350100000000     0.677550000000     0.645666666667     0          
O        O      0.310450000000     0.661900000000     0.594033333333     0          
O        O      0.351650000000     0.625000000000     0.622600000000     0          
O        O      0.301900000000     0.677950000000     0.528266666667     0          
O        O      0.250000000000     0.665200000000     0.567500000000     0          
O        O      0.290850000000     0.625000000000     0.546433333333     0          
O        O      0.354500000000     0.714750000000     0.363733333333     0          
O        O      0.338100000000     0.768550000000     0.366666666667     0          
O        O      0.311450000000     0.732300000000     0.411166666667     0          
O        O      0.300550000000     0.714000000000     0.475433333333     0          
O        O      0.291250000000     0.767850000000     0.459966666667     0          
O        O      0.250000000000     0.729250000000     0.435500000000     0          
O        O      0.399300000000     0.714600000000     0.646500000000     0          
T        Si     0.346750000000     0.657650000000     0.611433333333     0          
T        Si     0.288350000000     0.657550000000     0.559033333333     0          
T        Si     0.344800000000     0.740400000000     0.389733333333     0          
T        Si     0.288300000000     0.735850000000     0.445533333333     0          
T        Si     0.360500000000     0.709550000000     0.655666666667     0          
T        Si     0.311100000000     0.709700000000     0.515966666667     0          
O        O      0.149900000000     0.572450000000     0.645666666667     0          
O        O      0.189550000000     0.588100000000     0.594033333333     0          
O        O      0.148350000000     0.625000000000     0.622600000000     0          
O        O      0.198100000000     0.572050000000     0.528266666667     0          
O        O      0.250000000000     0.584800000000     0.567500000000     0          
O        O      0.209150000000     0.625000000000     0.546433333333     0          
O        O      0.145500000000     0.535250000000     0.363733333333     0          
O        O      0.161900000000     0.981450000000     0.366666666667     0          
O        O      0.188550000000     0.517700000000     0.411166666667     0          
O        O      0.199450000000     0.536000000000     0.475433333333     0          
O        O      0.208750000000     0.982150000000     0.459966666667     0          
O        O      0.250000000000     0.520750000000     0.435500000000     0          
O        O      0.100700000000     0.535400000000     0.646500000000     0          
T        Si     0.153250000000     0.592350000000     0.611433333333     0          
T        Si     0.211650000000     0.592450000000     0.559033333333     0          
T        Si     0.155200000000     0.509600000000     0.389733333333     0          
T        Si     0.211700000000     0.514150000000     0.445533333333     0          
T        Si     0.139500000000     0.540450000000     0.655666666667     0          
T        Si     0.188900000000     0.540300000000     0.515966666667     0          
O        O      0.149900000000     0.677550000000     0.645666666667     0          
O        O      0.189550000000     0.661900000000     0.594033333333     0          
O        O      0.198100000000     0.677950000000     0.528266666667     0          
O        O      0.145500000000     0.714750000000     0.363733333333     0          
O        O      0.161900000000     0.768550000000     0.366666666667     0          
O        O      0.188550000000     0.732300000000     0.411166666667     0          
O        O      0.199450000000     0.714000000000     0.475433333333     0          
O        O      0.208750000000     0.767850000000     0.459966666667     0          
O        O      0.100700000000     0.714600000000     0.646500000000     0          
T        Si     0.153250000000     0.657650000000     0.611433333333     0          
T        Si     0.211650000000     0.657550000000     0.559033333333     0          
T        Si     0.155200000000     0.740400000000     0.389733333333     0          
T        Si     0.211700000000     0.735850000000     0.445533333333     0          
T        Si     0.139500000000     0.709550000000     0.655666666667     0          
T        Si     0.188900000000     0.709700000000     0.515966666667     0          
O        O      0.350100000000     0.572450000000     0.645666666667     0          
O        O      0.310450000000     0.588100000000     0.594033333333     0          
O        O      0.301900000000     0.572050000000     0.528266666667     0          
O        O      0.354500000000     0.535250000000     0.363733333333     0          
O        O      0.338100000000     0.981450000000     0.366666666667     0          
O        O      0.311450000000     0.517700000000     0.411166666667     0          
O        O      0.300550000000     0.536000000000     0.475433333333     0          
O        O      0.291250000000     0.982150000000     0.459966666667     0          
O        O      0.399300000000     0.535400000000     0.646500000000     0          
T        Si     0.346750000000     0.592350000000     0.611433333333     0          
T        Si     0.288350000000     0.592450000000     0.559033333333     0          
T        Si     0.344800000000     0.509600000000     0.389733333333     0          
T        Si     0.288300000000     0.514150000000     0.445533333333     0          
T        Si     0.360500000000     0.540450000000     0.655666666667     0          
T        Si     0.311100000000     0.540300000000     0.515966666667     0          
O        O      0.149900000000     0.822450000000     0.354333333333     0          
O        O      0.189550000000     0.838100000000     0.405966666667     0          
O        O      0.198100000000     0.822050000000     0.471733333333     0          
O        O      0.145500000000     0.785250000000     0.636266666667     0          
O        O      0.161900000000     0.731450000000     0.633333333333     0          
O        O      0.188550000000     0.767700000000     0.588833333333     0          
O        O      0.199450000000     0.786000000000     0.524566666667     0          
O        O      0.208750000000     0.732150000000     0.540033333333     0          
O        O      0.100700000000     0.785400000000     0.353500000000     0          
T        Si     0.153250000000     0.842350000000     0.388566666667     0          
T        Si     0.211650000000     0.842450000000     0.440966666667     0          
T        Si     0.155200000000     0.759600000000     0.610266666667     0          
T        Si     0.211700000000     0.764150000000     0.554466666667     0          
T        Si     0.139500000000     0.790450000000     0.344333333333     0          
T        Si     0.188900000000     0.790300000000     0.484033333333     0          
O        O      0.350100000000     0.927550000000     0.354333333333     0          
O        O      0.310450000000     0.911900000000     0.405966666667     0          
O        O      0.301900000000     0.927950000000     0.471733333333     0          
O        O      0.354500000000     0.964750000000     0.636266666667     0          
O        O      0.338100000000     0.518550000000     0.633333333333     0          
O        O      0.311450000000     0.982300000000     0.588833333333     0          
O        O      0.300550000000     0.964000000000     0.524566666667     0          
O        O      0.291250000000     0.517850000000     0.540033333333     0          
O        O      0.399300000000     0.964600000000     0.353500000000     0          
T        Si     0.346750000000     0.907650000000     0.388566666667     0          
T        Si     0.288350000000     0.907550000000     0.440966666667     0          
T        Si     0.344800000000     0.990400000000     0.610266666667     0          
T        Si     0.288300000000     0.985850000000     0.554466666667     0          
T        Si     0.360500000000     0.959550000000     0.344333333333     0          
T        Si     0.311100000000     0.959700000000     0.484033333333     0          
O        O      0.100100000000     0.572450000000     0.854333333333     0          
O        O      0.060450000000     0.588100000000     0.905966666667     0          
O        O      0.101650000000     0.625000000000     0.877400000000     0          
O        O      0.125000000000     0.583550000000     0.916666666667     0          
O        O      0.051900000000     0.572050000000     0.971733333333     0          
O        O      0.000000000000     0.584800000000     0.932500000000     0          
O        O      0.040850000000     0.625000000000     0.953566666667     0          
O        O      0.104500000000     0.535250000000     0.802933333333     0          
O        O      0.088100000000     0.981450000000     0.800000000000     0          
O        O      0.061450000000     0.517700000000     0.755500000000     0          
O        O      0.125000000000     0.503800000000     0.750000000000     0          
O        O      0.050550000000     0.536000000000     0.691233333333     0          
O        O      0.041250000000     0.982150000000     0.706700000000     0          
O        O      0.000000000000     0.520750000000     0.731166666667     0          
O        O      0.149300000000     0.535400000000     0.853500000000     0          
T        Si     0.096750000000     0.592350000000     0.888566666667     0          
T        Si     0.038350000000     0.592450000000     0.940966666667     0          
T        Si     0.094800000000     0.509600000000     0.776933333333     0          
T        Si     0.038300000000     0.514150000000     0.721133333333     0          
T        Si     0.110500000000     0.540450000000     0.844333333333     0          
T        Si     0.061100000000     0.540300000000     0.984033333333     0          
O        O      0.399900000000     0.677550000000     0.854333333333     0          
O        O      0.439550000000     0.661900000000     0.905966666667     0          
O        O      0.398350000000     0.625000000000     0.877400000000     0          
O        O      0.375000000000     0.666450000000     0.916666666667     0          
O        O      0.448100000000     0.677950000000     0.971733333333     0          
O        O      0.000000000000     0.665200000000     0.932500000000     0          
O        O      0.459150000000     0.625000000000     0.953566666667     0          
O        O      0.395500000000     0.714750000000     0.802933333333     0          
O        O      0.411900000000     0.768550000000     0.800000000000     0          
O        O      0.438550000000     0.732300000000     0.755500000000     0          
O        O      0.375000000000     0.746200000000     0.750000000000     0          
O        O      0.449450000000     0.714000000000     0.691233333333     0          
O        O      0.458750000000     0.767850000000     0.706700000000     0          
O        O      0.000000000000     0.729250000000     0.731166666667     0          
O        O      0.350700000000     0.714600000000     0.853500000000     0          
T        Si     0.403250000000     0.657650000000     0.888566666667     0          
T        Si     0.461650000000     0.657550000000     0.940966666667     0          
T        Si     0.405200000000     0.740400000000     0.776933333333     0          
T        Si     0.461700000000     0.735850000000     0.721133333333     0          
T        Si     0.389500000000     0.709550000000     0.844333333333     0          
T        Si     0.438900000000     0.709700000000     0.984033333333     0          
O        O      0.100100000000     0.927550000000     0.812333333333     0          
O        O      0.060450000000     0.911900000000     0.760700000000     0          
O        O      0.101650000000     0.875000000000     0.789266666667     0          
O        O      0.125000000000     0.916450000000     0.750000000000     0          
O        O      0.051900000000     0.927950000000     0.694933333333     0          
O        O      0.000000000000     0.915200000000     0.734166666667     0          
O        O      0.040850000000     0.875000000000     0.713100000000     0          
O        O      0.104500000000     0.964750000000     0.863733333333     0          
O        O      0.088100000000     0.518550000000     0.866666666667     0          
O        O      0.061450000000     0.982300000000     0.911166666667     0          
O        O      0.125000000000     0.996200000000     0.916666666667     0          
O        O      0.050550000000     0.964000000000     0.975433333333     0          
O        O      0.041250000000     0.517850000000     0.959966666667     0          
O        O      0.000000000000     0.979250000000     0.935500000000     0          
O        O      0.149300000000     0.964600000000     0.813166666667     0          
T        Si     0.096750000000     0.907650000000     0.778100000000     0          
T        Si     0.038350000000     0.907550000000     0.725700000000     0          
T        Si     0.094800000000     0.990400000000     0.889733333333     0          
T        Si     0.038300000000     0.985850000000     0.945533333333     0          
T        Si     0.110500000000     0.959550000000     0.822333333333     0          
T        Si     0.061100000000     0.959700000000     0.682633333333     0          
O        O      0.399900000000     0.822450000000     0.812333333333     0          
O        O      0.439550000000     0.838100000000     0.760700000000     0          
O        O      0.398350000000     0.875000000000     0.789266666667     0          
O        O      0.375000000000     0.833550000000     0.750000000000     0          
O        O      0.448100000000     0.822050000000     0.694933333333     0          
O        O      0.000000000000     0.834800000000     0.734166666667     0          
O        O      0.459150000000     0.875000000000     0.713100000000     0          
O        O      0.395500000000     0.785250000000     0.863733333333     0          
O        O      0.411900000000     0.731450000000     0.866666666667     0          
O        O      0.438550000000     0.767700000000     0.911166666667     0          
O        O      0.375000000000     0.753800000000     0.916666666667     0          
O        O      0.449450000000     0.786000000000     0.975433333333     0          
O        O      0.458750000000     0.732150000000     0.959966666667     0          
O        O      0.000000000000     0.770750000000     0.935500000000     0          
O        O      0.350700000000     0.785400000000     0.813166666667     0          
T        Si     0.403250000000     0.842350000000     0.778100000000     0          
T        Si     0.461650000000     0.842450000000     0.725700000000     0          
T        Si     0.405200000000     0.759600000000     0.889733333333     0          
T        Si     0.461700000000     0.764150000000     0.945533333333     0          
T        Si     0.389500000000     0.790450000000     0.822333333333     0          
T        Si     0.438900000000     0.790300000000     0.682633333333     0          
O        O      0.399900000000     0.927550000000     0.812333333333     0          
O        O      0.439550000000     0.911900000000     0.760700000000     0          
O        O      0.375000000000     0.916450000000     0.750000000000     0          
O        O      0.448100000000     0.927950000000     0.694933333333     0          
O        O      0.395500000000     0.964750000000     0.863733333333     0          
O        O      0.411900000000     0.518550000000     0.866666666667     0          
O        O      0.438550000000     0.982300000000     0.911166666667     0          
O        O      0.375000000000     0.996200000000     0.916666666667     0          
O        O      0.449450000000     0.964000000000     0.975433333333     0          
O        O      0.458750000000     0.517850000000     0.959966666667     0          
O        O      0.350700000000     0.964600000000     0.813166666667     0          
T        Si     0.403250000000     0.907650000000     0.778100000000     0          
T        Si     0.461650000000     0.907550000000     0.725700000000     0          
T        Si     0.405200000000     0.990400000000     0.889733333333     0          
T        Si     0.461700000000     0.985850000000     0.945533333333     0          
T        Si     0.389500000000     0.959550000000     0.822333333333     0          
T        Si     0.438900000000     0.959700000000     0.682633333333     0          
O        O      0.100100000000     0.822450000000     0.812333333333     0          
O        O      0.060450000000     0.838100000000     0.760700000000     0          
O        O      0.125000000000     0.833550000000     0.750000000000     0          
O        O      0.051900000000     0.822050000000     0.694933333333     0          
O        O      0.104500000000     0.785250000000     0.863733333333     0          
O        O      0.088100000000     0.731450000000     0.866666666667     0          
O        O      0.061450000000     0.767700000000     0.911166666667     0          
O        O      0.125000000000     0.753800000000     0.916666666667     0          
O        O      0.050550000000     0.786000000000     0.975433333333     0          
O        O      0.041250000000     0.732150000000     0.959966666667     0          
O        O      0.149300000000     0.785400000000     0.813166666667     0          
T        Si     0.096750000000     0.842350000000     0.778100000000     0          
T        Si     0.038350000000     0.842450000000     0.725700000000     0          
T        Si     0.094800000000     0.759600000000     0.889733333333     0          
T        Si     0.038300000000     0.764150000000     0.945533333333     0          
T        Si     0.110500000000     0.790450000000     0.822333333333     0          
T        Si     0.061100000000     0.790300000000     0.682633333333     0          
O        O      0.399900000000     0.572450000000     0.854333333333     0          
O        O      0.439550000000     0.588100000000     0.905966666667     0          
O        O      0.375000000000     0.583550000000     0.916666666667     0          
O        O      0.448100000000     0.572050000000     0.971733333333     0          
O        O      0.395500000000     0.535250000000     0.802933333333     0          
O        O      0.411900000000     0.981450000000     0.800000000000     0          
O        O      0.438550000000     0.517700000000     0.755500000000     0          
O        O      0.375000000000     0.503800000000     0.750000000000     0          
O        O      0.449450000000     0.536000000000     0.691233333333     0          
O        O      0.458750000000     0.982150000000     0.706700000000     0          
O        O      0.350700000000     0.535400000000     0.853500000000     0          
T        Si     0.403250000000     0.592350000000     0.888566666667     0          
T        Si     0.461650000000     0.592450000000     0.940966666667     0          
T        Si     0.405200000000     0.509600000000     0.776933333333     0          
T        Si     0.461700000000     0.514150000000     0.721133333333     0          
T        Si     0.389500000000     0.540450000000     0.844333333333     0          
T        Si     0.438900000000     0.540300000000     0.984033333333     0          
O        O      0.100100000000     0.677550000000     0.854333333333     0          
O        O      0.060450000000     0.661900000000     0.905966666667     0          
O        O      0.125000000000     0.666450000000     0.916666666667     0          
O        O      0.051900000000     0.677950000000     0.971733333333     0          
O        O      0.104500000000     0.714750000000     0.802933333333     0          
O        O      0.088100000000     0.768550000000     0.800000000000     0          
O        O      0.061450000000     0.732300000000     0.755500000000     0          
O        O      0.125000000000     0.746200000000     0.750000000000     0          
O        O      0.050550000000     0.714000000000     0.691233333333     0          
O        O      0.041250000000     0.767850000000     0.706700000000     0          
O        O      0.149300000000     0.714600000000     0.853500000000     0          
T        Si     0.096750000000     0.657650000000     0.888566666667     0          
T        Si     0.038350000000     0.657550000000     0.940966666667     0          
T        Si     0.094800000000     0.740400000000     0.776933333333     0          
T        Si     0.038300000000     0.735850000000     0.721133333333     0          
T        Si     0.110500000000     0.709550000000     0.844333333333     0          
T        Si     0.061100000000     0.709700000000     0.984033333333     0          
O        O      0.350100000000     0.822450000000     0.687666666667     0          
O        O      0.310450000000     0.838100000000     0.739300000000     0          
O        O      0.351650000000     0.875000000000     0.710733333333     0          
O        O      0.301900000000     0.822050000000     0.805066666667     0          
O        O      0.250000000000     0.834800000000     0.765833333333     0          
O        O      0.290850000000     0.875000000000     0.786900000000     0          
O        O      0.354500000000     0.785250000000     0.969600000000     0          
O        O      0.338100000000     0.731450000000     0.966666666667     0          
O        O      0.311450000000     0.767700000000     0.922166666667     0          
O        O      0.300550000000     0.786000000000     0.857900000000     0          
O        O      0.291250000000     0.732150000000     0.873366666667     0          
O        O      0.250000000000     0.770750000000     0.897833333333     0          
O        O      0.399300000000     0.785400000000     0.686833333333     0          
T        Si     0.346750000000     0.842350000000     0.721900000000     0          
T        Si     0.288350000000     0.842450000000     0.774300000000     0          
T        Si     0.344800000000     0.759600000000     0.943600000000     0          
T        Si     0.288300000000     0.764150000000     0.887800000000     0          
T        Si     0.360500000000     0.790450000000     0.677666666667     0          
T        Si     0.311100000000     0.790300000000     0.817366666667     0          
O        O      0.149900000000     0.927550000000     0.687666666667     0          
O        O      0.189550000000     0.911900000000     0.739300000000     0          
O        O      0.148350000000     0.875000000000     0.710733333333     0          
O        O      0.198100000000     0.927950000000     0.805066666667     0          
O        O      0.250000000000     0.915200000000     0.765833333333     0          
O        O      0.209150000000     0.875000000000     0.786900000000     0          
O        O      0.145500000000     0.964750000000     0.969600000000     0          
O        O      0.161900000000     0.518550000000     0.966666666667     0          
O        O      0.188550000000     0.982300000000     0.922166666667     0          
O        O      0.199450000000     0.964000000000     0.857900000000     0          
O        O      0.208750000000     0.517850000000     0.873366666667     0          
O        O      0.250000000000     0.979250000000     0.897833333333     0          
O        O      0.100700000000     0.964600000000     0.686833333333     0          
T        Si     0.153250000000     0.907650000000     0.721900000000     0          
T        Si     0.211650000000     0.907550000000     0.774300000000     0          
T        Si     0.155200000000     0.990400000000     0.943600000000     0          
T        Si     0.211700000000     0.985850000000     0.887800000000     0          
T        Si     0.139500000000     0.959550000000     0.677666666667     0          
T        Si     0.188900000000     0.959700000000     0.817366666667     0          
O        O      0.350100000000     0.677550000000     0.979000000000     0          
O        O      0.310450000000     0.661900000000     0.927366666667     0          
O        O      0.351650000000     0.625000000000     0.955933333333     0          
O        O      0.301900000000     0.677950000000     0.861600000000     0          
O        O      0.250000000000     0.665200000000     0.900833333333     0          
O        O      0.290850000000     0.625000000000     0.879766666667     0          
O        O      0.354500000000     0.714750000000     0.697066666667     0          
O        O      0.338100000000     0.768550000000     0.700000000000     0          
O        O      0.311450000000     0.732300000000     0.744500000000     0          
O        O      0.300550000000     0.714000000000     0.808766666667     0          
O        O      0.291250000000     0.767850000000     0.793300000000     0          
O        O      0.250000000000     0.729250000000     0.768833333333     0          
O        O      0.399300000000     0.714600000000     0.979833333333     0          
T        Si     0.346750000000     0.657650000000     0.944766666667     0          
T        Si     0.288350000000     0.657550000000     0.892366666667     0          
T        Si     0.344800000000     0.740400000000     0.723066666667     0          
T        Si     0.288300000000     0.735850000000     0.778866666667     0          
T        Si     0.360500000000     0.709550000000     0.989000000000     0          
T        Si     0.311100000000     0.709700000000     0.849300000000     0          
O        O      0.149900000000     0.572450000000     0.979000000000     0          
O        O      0.189550000000     0.588100000000     0.927366666667     0          
O        O      0.148350000000     0.625000000000     0.955933333333     0          
O        O      0.198100000000     0.572050000000     0.861600000000     0          
O        O      0.250000000000     0.584800000000     0.900833333333     0          
O        O      0.209150000000     0.625000000000     0.879766666667     0          
O        O      0.145500000000     0.535250000000     0.697066666667     0          
O        O      0.161900000000     0.981450000000     0.700000000000     0          
O        O      0.188550000000     0.517700000000     0.744500000000     0          
O        O      0.199450000000     0.536000000000     0.808766666667     0          
O        O      0.208750000000     0.982150000000     0.793300000000     0          
O        O      0.250000000000     0.520750000000     0.768833333333     0          
O        O      0.100700000000     0.535400000000     0.979833333333     0          
T        Si     0.153250000000     0.592350000000     0.944766666667     0          
T        Si     0.211650000000     0.592450000000     0.892366666667     0          
T        Si     0.155200000000     0.509600000000     0.723066666667     0          
T        Si     0.211700000000     0.514150000000     0.778866666667     0          
T        Si     0.139500000000     0.540450000000     0.989000000000     0          
T        Si     0.188900000000     0.540300000000     0.849300000000     0          
O        O      0.149900000000     0.677550000000     0.979000000000     0          
O        O      0.189550000000     0.661900000000     0.927366666667     0          
O        O      0.198100000000     0.677950000000     0.861600000000     0          
O        O      0.145500000000     0.714750000000     0.697066666667     0          
O        O      0.161900000000     0.768550000000     0.700000000000     0          
O        O      0.188550000000     0.732300000000     0.744500000000     0          
O        O      0.199450000000     0.714000000000     0.808766666667     0          
O        O      0.208750000000     0.767850000000     0.793300000000     0          
O        O      0.100700000000     0.714600000000     0.979833333333     0          
T        Si     0.153250000000     0.657650000000     0.944766666667     0          
T        Si     0.211650000000     0.657550000000     0.892366666667     0          
T        Si     0.155200000000     0.740400000000     0.723066666667     0          
T        Si     0.211700000000     0.735850000000     0.778866666667     0          
T        Si     0.139500000000     0.709550000000     0.989000000000     0          
T        Si     0.188900000000     0.709700000000     0.849300000000     0          
O        O      0.350100000000     0.572450000000     0.979000000000     0          
O        O      0.310450000000     0.588100000000     0.927366666667     0          
O        O      0.301900000000     0.572050000000     0.861600000000     0          
O        O      0.354500000000     0.535250000000     0.697066666667     0          
O        O      0.338100000000     0.981450000000     0.700000000000     0          
O        O      0.311450000000     0.517700000000     0.744500000000     0          
O        O      0.300550000000     0.536000000000     0.808766666667     0          
O        O      0.291250000000     0.982150000000     0.793300000000     0          
O        O      0.399300000000     0.535400000000     0.979833333333     0          
T        Si     0.346750000000     0.592350000000     0.944766666667     0          
T        Si     0.288350000000     0.592450000000     0.892366666667     0          
T        Si     0.344800000000     0.509600000000     0.723066666667     0          
T        Si     0.288300000000     0.514150000000     0.778866666667     0          
T        Si     0.360500000000     0.540450000000     0.989000000000     0          
T        Si     0.311100000000     0.540300000000     0.849300000000     0          
O        O      0.149900000000     0.822450000000     0.687666666667     0          
O        O      0.189550000000     0.838100000000     0.739300000000     0          
O        O      0.198100000000     0.822050000000     0.805066666667     0          
O        O      0.145500000000     0.785250000000     0.969600000000     0          
O        O      0.161900000000     0.731450000000     0.966666666667     0          
O        O      0.188550000000     0.767700000000     0.922166666667     0          
O        O      0.199450000000     0.786000000000     0.857900000000     0          
O        O      0.208750000000     0.732150000000     0.873366666667     0          
O        O      0.100700000000     0.785400000000     0.686833333333     0          
T        Si     0.153250000000     0.842350000000     0.721900000000     0          
T        Si     0.211650000000     0.842450000000     0.774300000000     0          
T        Si     0.155200000000     0.759600000000     0.943600000000     0          
T        Si     0.211700000000     0.764150000000     0.887800000000     0          
T        Si     0.139500000000     0.790450000000     0.677666666667     0          
T        Si     0.188900000000     0.790300000000     0.817366666667     0          
O        O      0.350100000000     0.927550000000     0.687666666667     0          
O        O      0.310450000000     0.911900000000     0.739300000000     0          
O        O      0.301900000000     0.927950000000     0.805066666667     0          
O        O      0.354500000000     0.964750000000     0.969600000000     0          
O        O      0.338100000000     0.518550000000     0.966666666667     0          
O        O      0.311450000000     0.982300000000     0.922166666667     0          
O        O      0.300550000000     0.964000000000     0.857900000000     0          
O        O      0.291250000000     0.517850000000     0.873366666667     0          
O        O      0.399300000000     0.964600000000     0.686833333333     0          
T        Si     0.346750000000     0.907650000000     0.721900000000     0          
T        Si     0.288350000000     0.907550000000     0.774300000000     0          
T        Si     0.344800000000     0.990400000000     0.943600000000     0          
T        Si     0.288300000000     0.985850000000     0.887800000000     0          
T        Si     0.360500000000     0.959550000000     0.677666666667     0          
T        Si     0.311100000000     0.959700000000     0.817366666667     0          
O        O      0.600100000000     0.072450000000     0.187666666667     0          
O        O      0.560450000000     0.088100000000     0.239300000000     0          
O        O      0.601650000000     0.125000000000     0.210733333333     0          
O        O      0.625000000000     0.083550000000     0.250000000000     0          
O        O      0.551900000000     0.072050000000     0.305066666667     0          
O        O      0.500000000000     0.084800000000     0.265833333333     0          
O        O      0.540850000000     0.125000000000     0.286900000000     0          
O        O      0.604500000000     0.035250000000     0.136266666667     0          
O        O      0.588100000000     0.481450000000     0.133333333333     0          
O        O      0.561450000000     0.017700000000     0.088833333333     0          
O        O      0.625000000000     0.003800000000     0.083333333333     0          
O        O      0.550550000000     0.036000000000     0.024566666667     0          
O        O      0.541250000000     0.482150000000     0.040033333333     0          
O        O      0.500000000000     0.020750000000     0.064500000000     0          
O        O      0.649300000000     0.035400000000     0.186833333333     0          
T        Si     0.596750000000     0.092350000000     0.221900000000     0          
T        Si     0.538350000000     0.092450000000     0.274300000000     0          
T        Si     0.594800000000     0.009600000000     0.110266666667     0          
T        Si     0.538300000000     0.014150000000     0.054466666667     0          
T        Si     0.610500000000     0.040450000000     0.177666666667     0          
T        Si     0.561100000000     0.040300000000     0.317366666667     0          
O        O      0.899900000000     0.177550000000     0.187666666667     0          
O        O      0.939550000000     0.161900000000     0.239300000000     0          
O        O      0.898350000000     0.125000000000     0.210733333333     0          
O        O      0.875000000000     0.166450000000     0.250000000000     0          
O        O      0.948100000000     0.177950000000     0.305066666667     0          
O        O      0.500000000000     0.165200000000     0.265833333333     0          
O        O      0.959150000000     0.125000000000     0.286900000000     0          
O        O      0.895500000000     0.214750000000     0.136266666667     0          
O        O      0.911900000000     0.268550000000     0.133333333333     0          
O        O      0.938550000000     0.232300000000     0.088833333333     0          
O        O      0.875000000000     0.246200000000     0.083333333333     0          
O        O      0.949450000000     0.214000000000     0.024566666667     0          
O        O      0.958750000000     0.267850000000     0.040033333333     0          
O        O      0.500000000000     0.229250000000     0.064500000000     0          
O        O      0.850700000000     0.214600000000     0.186833333333     0          
T        Si     0.903250000000     0.157650000000     0.221900000000     0          
T        Si     0.961650000000     0.157550000000     0.274300000000     0          
T        Si     0.905200000000     0.240400000000     0.110266666667     0          
T        Si     0.961700000000     0.235850000000     0.054466666667     0          
T        Si     0.889500000000     0.209550000000     0.177666666667     0          
T        Si     0.938900000000     0.209700000000     0.317366666667     0          
O        O      0.600100000000     0.427550000000     0.145666666667     0          
O        O      0.560450000000     0.411900000000     0.094033333333     0          
O        O      0.601650000000     0.375000000000     0.122600000000     0          
O        O      0.625000000000     0.416450000000     0.083333333333     0          
O        O      0.551900000000     0.427950000000     0.028266666667     0          
O        O      0.500000000000     0.415200000000     0.067500000000     0          
O        O      0.540850000000     0.375000000000     0.046433333333     0          
O        O      0.604500000000     0.464750000000     0.197066666667     0          
O        O      0.588100000000     0.018550000000     0.200000000000     0          
O        O      0.561450000000     0.482300000000     0.244500000000     0          
O        O      0.625000000000     0.496200000000     0.250000000000     0          
O        O      0.550550000000     0.464000000000     0.308766666667     0          
O        O      0.541250000000     0.017850000000     0.293300000000     0          
O        O      0.500000000000     0.479250000000     0.268833333333     0          
O        O      0.649300000000     0.464600000000     0.146500000000     0          
T        Si     0.596750000000     0.407650000000     0.111433333333     0          
T        Si     0.538350000000     0.407550000000     0.059033333333     0          
T        Si     0.594800000000     0.490400000000     0.223066666667     0          
T        Si     0.538300000000     0.485850000000     0.278866666667     0          
T        Si     0.610500000000     0.459550000000     0.155666666667     0          
T        Si     0.561100000000     0.459700000000     0.015966666667     0          
O        O      0.899900000000     0.322450000000     0.145666666667     0          
O        O      0.939550000000     0.338100000000     0.094033333333     0          
O        O      0.898350000000     0.375000000000     0.122600000000     0          
O        O      0.875000000000     0.333550000000     0.083333333333     0          
O        O      0.948100000000     0.322050000000     0.028266666667     0          
O        O      0.500000000000     0.334800000000     0.067500000000     0          
O        O      0.959150000000     0.375000000000     0.046433333333     0          
O        O      0.895500000000     0.285250000000     0.197066666667     0          
O        O      0.911900000000     0.231450000000     0.200000000000     0          
O        O      0.938550000000     0.267700000000     0.244500000000     0          
O        O      0.875000000000     0.253800000000     0.250000000000     0          
O        O      0.949450000000     0.286000000000     0.308766666667     0          
O        O      0.958750000000     0.232150000000     0.293300000000     0          
O        O      0.500000000000     0.270750000000     0.268833333333     0          
O        O      0.850700000000     0.285400000000     0.146500000000     0          
T        Si     0.903250000000     0.342350000000     0.111433333333     0          
T        Si     0.961650000000     0.342450000000     0.059033333333     0          
T        Si     0.905200000000     0.259600000000     0.223066666667     0          
T        Si     0.961700000000     0.264150000000     0.278866666667     0          
T        Si     0.889500000000     0.290450000000     0.155666666667     0          
T        Si     0.938900000000     0.290300000000     0.015966666667     0          
O        O      0.899900000000     0.427550000000     0.145666666667     0          
O        O      0.939550000000     0.411900000000     0.094033333333     0          
O        O      0.875000000000     0.416450000000     0.083333333333     0          
O        O      0.948100000000     0.427950000000     0.028266666667     0          
O        O      0.895500000000     0.464750000000     0.197066666667     0          
O        O      0.911900000000     0.018550000000     0.200000000000     0          
O        O      0.938550000000     0.482300000000     0.244500000000     0          
O        O      0.875000000000     0.496200000000     0.250000000000     0          
O        O      0.949450000000     0.464000000000     0.308766666667     0          
O        O      0.958750000000     0.017850000000     0.293300000000     0          
O        O      0.850700000000     0.464600000000     0.146500000000     0          
T        Si     0.903250000000     0.407650000000     0.111433333333     0          
T        Si     0.961650000000     0.407550000000     0.059033333333     0          
T        Si     0.905200000000     0.490400000000     0.223066666667     0          
T        Si     0.961700000000     0.485850000000     0.278866666667     0          
T        Si     0.889500000000     0.459550000000     0.155666666667     0          
T        Si     0.938900000000     0.459700000000     0.015966666667     0          
O        O      0.600100000000     0.322450000000     0.145666666667     0          
O        O      0.560450000000     0.338100000000     0.094033333333     0          
O        O      0.625000000000     0.333550000000     0.083333333333     0          
O        O      0.551900000000     0.322050000000     0.028266666667     0          
O        O      0.604500000000     0.285250000000     0.197066666667     0          
O        O      0.588100000000     0.231450000000     0.200000000000     0          
O        O      0.561450000000     0.267700000000     0.244500000000     0          
O        O      0.625000000000     0.253800000000     0.250000000000     0          
O        O      0.550550000000     0.286000000000     0.308766666667     0          
O        O      0.541250000000     0.232150000000     0.293300000000     0          
O        O      0.649300000000     0.285400000000     0.146500000000     0          
T        Si     0.596750000000     0.342350000000     0.111433333333     0          
T        Si     0.538350000000     0.342450000000     0.059033333333     0          
T        Si     0.594800000000     0.259600000000     0.223066666667     0          
T        Si     0.538300000000     0.264150000000     0.278866666667     0          
T        Si     0.610500000000     0.290450000000     0.155666666667     0          
T        Si     0.561100000000     0.290300000000     0.015966666667     0          
O        O      0.899900000000     0.072450000000     0.187666666667     0          
O        O      0.939550000000     0.088100000000     0.239300000000     0          
O        O      0.875000000000     0.083550000000     0.250000000000     0          
O        O      0.948100000000     0.072050000000     0.305066666667     0          
O        O      0.895500000000     0.035250000000     0.136266666667     0          
O        O      0.911900000000     0.481450000000     0.133333333333     0          
O        O      0.938550000000     0.017700000000     0.088833333333     0          
O        O      0.875000000000     0.003800000000     0.083333333333     0          
O        O      0.949450000000     0.036000000000     0.024566666667     0          
O        O      0.958750000000     0.482150000000     0.040033333333     0          
O        O      0.850700000000     0.035400000000     0.186833333333     0          
T        Si     0.903250000000     0.092350000000     0.221900000000     0          
T        Si     0.961650000000     0.092450000000     0.274300000000     0          
T        Si     0.905200000000     0.009600000000     0.110266666667     0          
T        Si     0.961700000000     0.014150000000     0.054466666667     0          
T        Si     0.889500000000     0.040450000000     0.177666666667     0          
T        Si     0.938900000000     0.040300000000     0.317366666667     0          
O        O      0.600100000000     0.177550000000     0.187666666667     0          
O        O      0.560450000000     0.161900000000     0.239300000000     0          
O        O      0.625000000000     0.166450000000     0.250000000000     0          
O        O      0.551900000000     0.177950000000     0.305066666667     0          
O        O      0.604500000000     0.214750000000     0.136266666667     0          
O        O      0.588100000000     0.268550000000     0.133333333333     0          
O        O      0.561450000000     0.232300000000     0.088833333333     0          
O        O      0.625000000000     0.246200000000     0.083333333333     0          
O        O      0.550550000000     0.214000000000     0.024566666667     0          
O        O      0.541250000000     0.267850000000     0.040033333333     0          
O        O      0.649300000000     0.214600000000     0.186833333333     0          
T        Si     0.596750000000     0.157650000000     0.221900000000     0          
T        Si     0.538350000000     0.157550000000     0.274300000000     0          
T        Si     0.594800000000     0.240400000000     0.110266666667     0          
T        Si     0.538300000000     0.235850000000     0.054466666667     0          
T        Si     0.610500000000     0.209550000000     0.177666666667     0          
T        Si     0.561100000000     0.209700000000     0.317366666667     0          
O        O      0.850100000000     0.322450000000     0.021000000000     0          
O        O      0.810450000000     0.338100000000     0.072633333333     0          
O        O      0.851650000000     0.375000000000     0.044066666667     0          
O        O      0.801900000000     0.322050000000     0.138400000000     0          
O        O      0.750000000000     0.334800000000     0.099166666667     0          
O        O      0.790850000000     0.375000000000     0.120233333333     0          
O        O      0.854500000000     0.285250000000     0.302933333333     0          
O        O      0.838100000000     0.231450000000     0.300000000000     0          
O        O      0.811450000000     0.267700000000     0.255500000000     0          
O        O      0.800550000000     0.286000000000     0.191233333333     0          
O        O      0.791250000000     0.232150000000     0.206700000000     0          
O        O      0.750000000000     0.270750000000     0.231166666667     0          
O        O      0.899300000000     0.285400000000     0.020166666667     0          
T        Si     0.846750000000     0.342350000000     0.055233333333     0          
T        Si     0.788350000000     0.342450000000     0.107633333333     0          
T        Si     0.844800000000     0.259600000000     0.276933333333     0          
T        Si     0.788300000000     0.264150000000     0.221133333333     0          
T        Si     0.860500000000     0.290450000000     0.011000000000     0          
T        Si     0.811100000000     0.290300000000     0.150700000000     0          
O        O      0.649900000000     0.427550000000     0.021000000000     0          
O        O      0.689550000000     0.411900000000     0.072633333333     0          
O        O      0.648350000000     0.375000000000     0.044066666667     0          
O        O      0.698100000000     0.427950000000     0.138400000000     0          
O        O      0.750000000000     0.415200000000     0.099166666667     0          
O        O      0.709150000000     0.375000000000     0.120233333333     0          
O        O      0.645500000000     0.464750000000     0.302933333333     0          
O        O      0.661900000000     0.018550000000     0.300000000000     0          
O        O      0.688550000000     0.482300000000     0.255500000000     0          
O        O      0.699450000000     0.464000000000     0.191233333333     0          
O        O      0.708750000000     0.017850000000     0.206700000000     0          
O        O      0.750000000000     0.479250000000     0.231166666667     0          
O        O      0.600700000000     0.464600000000     0.020166666667     0          
T        Si     0.653250000000     0.407650000000     0.055233333333     0          
T        Si     0.711650000000     0.407550000000     0.107633333333     0          
T        Si     0.655200000000     0.490400000000     0.276933333333     0          
T        Si     0.711700000000     0.485850000000     0.221133333333     0          
T        Si     0.639500000000     0.459550000000     0.011000000000     0          
T        Si     0.688900000000     0.459700000000     0.150700000000     0          
O        O      0.850100000000     0.177550000000     0.312333333333     0          
O        O      0.810450000000     0.161900000000     0.260700000000     0          
O        O      0.851650000000     0.125000000000     0.289266666667     0          
O        O      0.801900000000     0.177950000000     0.194933333333     0          
O        O      0.750000000000     0.165200000000     0.234166666667     0          
O        O      0.790850000000     0.125000000000     0.213100000000     0          
O        O      0.854500000000     0.214750000000     0.030400000000     0          
O        O      0.838100000000     0.268550000000     0.033333333333     0          
O        O      0.811450000000     0.232300000000     0.077833333333     0          
O        O      0.800550000000     0.214000000000     0.142100000000     0          
O        O      0.791250000000     0.267850000000     0.126633333333     0          
O        O      0.750000000000     0.229250000000     0.102166666667     0          
O        O      0.899300000000     0.214600000000     0.313166666667     0          
T        Si     0.846750000000     0.157650000000     0.278100000000     0          
T        Si     0.788350000000     0.157550000000     0.225700000000     0          
T        Si     0.844800000000     0.240400000000     0.056400000000     0          
T        Si     0.788300000000     0.235850000000     0.112200000000     0          
T        Si     0.860500000000     0.209550000000     0.322333333333     0          
T        Si     0.811100000000     0.209700000000     0.182633333333     0          
O        O      0.649900000000     0.072450000000     0.312333333333     0          
O        O      0.689550000000     0.088100000000     0.260700000000     0          
O        O      0.648350000000     0.125000000000     0.289266666667     0          
O        O      0.698100000000     0.072050000000     0.194933333333     0          
O        O      0.750000000000     0.084800000000     0.234166666667     0          
O        O      0.709150000000     0.125000000000     0.213100000000     0          
O        O      0.645500000000     0.035250000000     0.030400000000     0          
O        O      0.661900000000     0.481450000000     0.033333333333     0          
O        O      0.688550000000     0.017700000000     0.077833333333     0          
O        O      0.699450000000     0.036000000000     0.142100000000     0          
O        O      0.708750000000     0.482150000000     0.126633333333     0          
O        O      0.750000000000     0.020750000000     0.102166666667     0          
O        O      0.600700000000     0.035400000000     0.313166666667     0          
T        Si     0.653250000000     0.092350000000     0.278100000000     0          
T        Si     0.711650000000     0.092450000000     0.225700000000     0          
T        Si     0.655200000000     0.009600000000     0.056400000000     0          
T        Si     0.711700000000     0.014150000000     0.112200000000     0          
T        Si     0.639500000000     0.040450000000     0.322333333333     0          
T        Si     0.688900000000     0.040300000000     0.182633333333     0          
O        O      0.649900000000     0.177550000000     0.312333333333     0          
O        O      0.689550000000     0.161900000000     0.260700000000     0          
O        O      0.698100000000     0.177950000000     0.194933333333     0          
O        O      0.645500000000     0.214750000000     0.030400000000     0          
O        O      0.661900000000     0.268550000000     0.033333333333     0          
O        O      0.688550000000     0.232300000000     0.077833333333     0          
O        O      0.699450000000     0.214000000000     0.142100000000     0          
O        O      0.708750000000     0.267850000000     0.126633333333     0          
O        O      0.600700000000     0.214600000000     0.313166666667     0          
T        Si     0.653250000000     0.157650000000     0.278100000000     0          
T        Si     0.711650000000     0.157550000000     0.225700000000     0          
T        Si     0.655200000000     0.240400000000     0.056400000000     0          
T        Si     0.711700000000     0.235850000000     0.112200000000     0          
T        Si     0.639500000000     0.209550000000     0.322333333333     0          
T        Si     0.688900000000     0.209700000000     0.182633333333     0          
O        O      0.850100000000     0.072450000000     0.312333333333     0          
O        O      0.810450000000     0.088100000000     0.260700000000     0          
O        O      0.801900000000     0.072050000000     0.194933333333     0          
O        O      0.854500000000     0.035250000000     0.030400000000     0          
O        O      0.838100000000     0.481450000000     0.033333333333     0          
O        O      0.811450000000     0.017700000000     0.077833333333     0          
O        O      0.800550000000     0.036000000000     0.142100000000     0          
O        O      0.791250000000     0.482150000000     0.126633333333     0          
O        O      0.899300000000     0.035400000000     0.313166666667     0          
T        Si     0.846750000000     0.092350000000     0.278100000000     0          
T        Si     0.788350000000     0.092450000000     0.225700000000     0          
T        Si     0.844800000000     0.009600000000     0.056400000000     0          
T        Si     0.788300000000     0.014150000000     0.112200000000     0          
T        Si     0.860500000000     0.040450000000     0.322333333333     0          
T        Si     0.811100000000     0.040300000000     0.182633333333     0          
O        O      0.649900000000     0.322450000000     0.021000000000     0          
O        O      0.689550000000     0.338100000000     0.072633333333     0          
O        O      0.698100000000     0.322050000000     0.138400000000     0          
O        O      0.645500000000     0.285250000000     0.302933333333     0          
O        O      0.661900000000     0.231450000000     0.300000000000     0          
O        O      0.688550000000     0.267700000000     0.255500000000     0          
O        O      0.699450000000     0.286000000000     0.191233333333     0          
O        O      0.708750000000     0.232150000000     0.206700000000     0          
O        O      0.600700000000     0.285400000000     0.020166666667     0          
T        Si     0.653250000000     0.342350000000     0.055233333333     0          
T        Si     0.711650000000     0.342450000000     0.107633333333     0          
T        Si     0.655200000000     0.259600000000     0.276933333333     0          
T        Si     0.711700000000     0.264150000000     0.221133333333     0          
T        Si     0.639500000000     0.290450000000     0.011000000000     0          
T        Si     0.688900000000     0.290300000000     0.150700000000     0          
O        O      0.850100000000     0.427550000000     0.021000000000     0          
O        O      0.810450000000     0.411900000000     0.072633333333     0          
O        O      0.801900000000     0.427950000000     0.138400000000     0          
O        O      0.854500000000     0.464750000000     0.302933333333     0          
O        O      0.838100000000     0.018550000000     0.300000000000     0          
O        O      0.811450000000     0.482300000000     0.255500000000     0          
O        O      0.800550000000     0.464000000000     0.191233333333     0          
O        O      0.791250000000     0.017850000000     0.206700000000     0          
O        O      0.899300000000     0.464600000000     0.020166666667     0          
T        Si     0.846750000000     0.407650000000     0.055233333333     0          
T        Si     0.788350000000     0.407550000000     0.107633333333     0          
T        Si     0.844800000000     0.490400000000     0.276933333333     0          
T        Si     0.788300000000     0.485850000000     0.221133333333     0          
T        Si     0.860500000000     0.459550000000     0.011000000000     0          
T        Si     0.811100000000     0.459700000000     0.150700000000     0          
O        O      0.600100000000     0.072450000000     0.521000000000     0          
O        O      0.560450000000     0.088100000000     0.572633333333     0          
O        O      0.601650000000     0.125000000000     0.544066666667     0          
O        O      0.625000000000     0.083550000000     0.583333333333     0          
O        O      0.551900000000     0.072050000000     0.638400000000     0          
O        O      0.500000000000     0.084800000000     0.599166666667     0          
O        O      0.540850000000     0.125000000000     0.620233333333     0          
O        O      0.604500000000     0.035250000000     0.469600000000     0          
O        O      0.588100000000     0.481450000000     0.466666666667     0          
O        O      0.561450000000     0.017700000000     0.422166666667     0          
O        O      0.625000000000     0.003800000000     0.416666666667     0          
O        O      0.550550000000     0.036000000000     0.357900000000     0          
O        O      0.541250000000     0.482150000000     0.373366666667     0          
O        O      0.500000000000     0.020750000000     0.397833333333     0          
O        O      0.649300000000     0.035400000000     0.520166666667     0          
T        Si     0.596750000000     0.092350000000     0.555233333333     0          
T        Si     0.538350000000     0.092450000000     0.607633333333     0          
T        Si     0.594800000000     0.009600000000     0.443600000000     0          
T        Si     0.538300000000     0.014150000000     0.387800000000     0          
T        Si     0.610500000000     0.040450000000     0.511000000000     0          
T        Si     0.561100000000     0.040300000000     0.650700000000     0          
O        O      0.899900000000     0.177550000000     0.521000000000     0          
O        O      0.939550000000     0.161900000000     0.572633333333     0          
O        O      0.898350000000     0.125000000000     0.544066666667     0          
O        O      0.875000000000     0.166450000000     0.583333333333     0          
O        O      0.948100000000     0.177950000000     0.638400000000     0          
O        O      0.500000000000     0.165200000000     0.599166666667     0          
O        O      0.959150000000     0.125000000000     0.620233333333     0          
O        O      0.895500000000     0.214750000000     0.469600000000     0          
O        O      0.911900000000     0.268550000000     0.466666666667     0          
O        O      0.938550000000     0.232300000000     0.422166666667     0          
O        O      0.875000000000     0.246200000000     0.416666666667     0          
O        O      0.949450000000     0.214000000000     0.357900000000     0          
O        O      0.958750000000     0.267850000000     0.373366666667     0          
O        O      0.500000000000     0.229250000000     0.397833333333     0          
O        O      0.850700000000     0.214600000000     0.520166666667     0          
T        Si     0.903250000000     0.157650000000     0.555233333333     0          
T        Si     0.961650000000     0.157550000000     0.607633333333     0          
T        Si     0.905200000000     0.240400000000     0.443600000000     0          
T        Si     0.961700000000     0.235850000000     0.387800000000     0          
T        Si     0.889500000000     0.209550000000     0.511000000000     0          
T        Si     0.938900000000     0.209700000000     0.650700000000     0          
O        O      0.600100000000     0.427550000000     0.479000000000     0          
O        O      0.560450000000     0.411900000000     0.427366666667     0          
O        O      0.601650000000     0.375000000000     0.455933333333     0          
O        O      0.625000000000     0.416450000000     0.416666666667     0          
O        O      0.551900000000     0.427950000000     0.361600000000     0          
O        O      0.500000000000     0.415200000000     0.400833333333     0          
O        O      0.540850000000     0.375000000000     0.379766666667     0          
O        O      0.604500000000     0.464750000000     0.530400000000     0          
O        O      0.588100000000     0.018550000000     0.533333333333     0          
O        O      0.561450000000     0.482300000000     0.577833333333     0          
O        O      0.625000000000     0.496200000000     0.583333333333     0          
O        O      0.550550000000     0.464000000000     0.642100000000     0          
O        O      0.541250000000     0.017850000000     0.626633333333     0          
O        O      0.500000000000     0.479250000000     0.602166666667     0          
O        O      0.649300000000     0.464600000000     0.479833333333     0          
T        Si     0.596750000000     0.407650000000     0.444766666667     0          
T        Si     0.538350000000     0.407550000000     0.392366666667     0          
T        Si     0.594800000000     0.490400000000     0.556400000000     0          
T        Si     0.538300000000     0.485850000000     0.612200000000     0          
T        Si     0.610500000000     0.459550000000     0.489000000000     0          
T        Si     0.561100000000     0.459700000000     0.349300000000     0          
O        O      0.899900000000     0.322450000000     0.479000000000     0          
O        O      0.939550000000     0.338100000000     0.427366666667     0          
O        O      0.898350000000     0.375000000000     0.455933333333     0          
O        O      0.875000000000     0.333550000000     0.416666666667     0          
O        O      0.948100000000     0.322050000000     0.361600000000     0          
O        O      0.500000000000     0.334800000000     0.400833333333     0          
O        O      0.959150000000     0.375000000000     0.379766666667     0          
O        O      0.895500000000     0.285250000000     0.530400000000     0          
O        O      0.911900000000     0.231450000000     0.533333333333     0          
O        O      0.938550000000     0.267700000000     0.577833333333     0          
O        O      0.875000000000     0.253800000000     0.583333333333     0          
O        O      0.949450000000     0.286000000000     0.642100000000     0          
O        O      0.958750000000     0.232150000000     0.626633333333     0          
O        O      0.500000000000     0.270750000000     0.602166666667     0          
O        O      0.850700000000     0.285400000000     0.479833333333     0          
T        Si     0.903250000000     0.342350000000     0.444766666667     0          
T        Si     0.961650000000     0.342450000000     0.392366666667     0          
T        Si     0.905200000000     0.259600000000     0.556400000000     0          
T        Si     0.961700000000     0.264150000000     0.612200000000     0          
T        Si     0.889500000000     0.290450000000     0.489000000000     0          
T        Si     0.938900000000     0.290300000000     0.349300000000     0          
O        O      0.899900000000     0.427550000000     0.479000000000     0          
O        O      0.939550000000     0.411900000000     0.427366666667     0          
O        O      0.875000000000     0.416450000000     0.416666666667     0          
O        O      0.948100000000     0.427950000000     0.361600000000     0          
O        O      0.895500000000     0.464750000000     0.530400000000     0          
O        O      0.911900000000     0.018550000000     0.533333333333     0          
O        O      0.938550000000     0.482300000000     0.577833333333     0          
O        O      0.875000000000     0.496200000000     0.583333333333     0          
O        O      0.949450000000     0.464000000000     0.642100000000     0          
O        O      0.958750000000     0.017850000000     0.626633333333     0          
O        O      0.850700000000     0.464600000000     0.479833333333     0          
T        Si     0.903250000000     0.407650000000     0.444766666667     0          
T        Si     0.961650000000     0.407550000000     0.392366666667     0          
T        Si     0.905200000000     0.490400000000     0.556400000000     0          
T        Si     0.961700000000     0.485850000000     0.612200000000     0          
T        Si     0.889500000000     0.459550000000     0.489000000000     0          
T        Si     0.938900000000     0.459700000000     0.349300000000     0          
O        O      0.600100000000     0.322450000000     0.479000000000     0          
O        O      0.560450000000     0.338100000000     0.427366666667     0          
O        O      0.625000000000     0.333550000000     0.416666666667     0          
O        O      0.551900000000     0.322050000000     0.361600000000     0          
O        O      0.604500000000     0.285250000000     0.530400000000     0          
O        O      0.588100000000     0.231450000000     0.533333333333     0          
O        O      0.561450000000     0.267700000000     0.577833333333     0          
O        O      0.625000000000     0.253800000000     0.583333333333     0          
O        O      0.550550000000     0.286000000000     0.642100000000     0          
O        O      0.541250000000     0.232150000000     0.626633333333     0          
O        O      0.649300000000     0.285400000000     0.479833333333     0          
T        Si     0.596750000000     0.342350000000     0.444766666667     0          
T        Si     0.538350000000     0.342450000000     0.392366666667     0          
T        Si     0.594800000000     0.259600000000     0.556400000000     0          
T        Si     0.538300000000     0.264150000000     0.612200000000     0          
T        Si     0.610500000000     0.290450000000     0.489000000000     0          
T        Si     0.561100000000     0.290300000000     0.349300000000     0          
O        O      0.899900000000     0.072450000000     0.521000000000     0          
O        O      0.939550000000     0.088100000000     0.572633333333     0          
O        O      0.875000000000     0.083550000000     0.583333333333     0          
O        O      0.948100000000     0.072050000000     0.638400000000     0          
O        O      0.895500000000     0.035250000000     0.469600000000     0          
O        O      0.911900000000     0.481450000000     0.466666666667     0          
O        O      0.938550000000     0.017700000000     0.422166666667     0          
O        O      0.875000000000     0.003800000000     0.416666666667     0          
O        O      0.949450000000     0.036000000000     0.357900000000     0          
O        O      0.958750000000     0.482150000000     0.373366666667     0          
O        O      0.850700000000     0.035400000000     0.520166666667     0          
T        Si     0.903250000000     0.092350000000     0.555233333333     0          
T        Si     0.961650000000     0.092450000000     0.607633333333     0          
T        Si     0.905200000000     0.009600000000     0.443600000000     0          
T        Si     0.961700000000     0.014150000000     0.387800000000     0          
T        Si     0.889500000000     0.040450000000     0.511000000000     0          
T        Si     0.938900000000     0.040300000000     0.650700000000     0          
O        O      0.600100000000     0.177550000000     0.521000000000     0          
O        O      0.560450000000     0.161900000000     0.572633333333     0          
O        O      0.625000000000     0.166450000000     0.583333333333     0          
O        O      0.551900000000     0.177950000000     0.638400000000     0          
O        O      0.604500000000     0.214750000000     0.469600000000     0          
O        O      0.588100000000     0.268550000000     0.466666666667     0          
O        O      0.561450000000     0.232300000000     0.422166666667     0          
O        O      0.625000000000     0.246200000000     0.416666666667     0          
O        O      0.550550000000     0.214000000000     0.357900000000     0          
O        O      0.541250000000     0.267850000000     0.373366666667     0          
O        O      0.649300000000     0.214600000000     0.520166666667     0          
T        Si     0.596750000000     0.157650000000     0.555233333333     0          
T        Si     0.538350000000     0.157550000000     0.607633333333     0          
T        Si     0.594800000000     0.240400000000     0.443600000000     0          
T        Si     0.538300000000     0.235850000000     0.387800000000     0          
T        Si     0.610500000000     0.209550000000     0.511000000000     0          
T        Si     0.561100000000     0.209700000000     0.650700000000     0          
O        O      0.850100000000     0.322450000000     0.354333333333     0          
O        O      0.810450000000     0.338100000000     0.405966666667     0          
O        O      0.851650000000     0.375000000000     0.377400000000     0          
O        O      0.801900000000     0.322050000000     0.471733333333     0          
O        O      0.750000000000     0.334800000000     0.432500000000     0          
O        O      0.790850000000     0.375000000000     0.453566666667     0          
O        O      0.854500000000     0.285250000000     0.636266666667     0          
O        O      0.838100000000     0.231450000000     0.633333333333     0          
O        O      0.811450000000     0.267700000000     0.588833333333     0          
O        O      0.800550000000     0.286000000000     0.524566666667     0          
O        O      0.791250000000     0.232150000000     0.540033333333     0          
O        O      0.750000000000     0.270750000000     0.564500000000     0          
O        O      0.899300000000     0.285400000000     0.353500000000     0          
T        Si     0.846750000000     0.342350000000     0.388566666667     0          
T        Si     0.788350000000     0.342450000000     0.440966666667     0          
T        Si     0.844800000000     0.259600000000     0.610266666667     0          
T        Si     0.788300000000     0.264150000000     0.554466666667     0          
T        Si     0.860500000000     0.290450000000     0.344333333333     0          
T        Si     0.811100000000     0.290300000000     0.484033333333     0          
O        O      0.649900000000     0.427550000000     0.354333333333     0          
O        O      0.689550000000     0.411900000000     0.405966666667     0          
O        O      0.648350000000     0.375000000000     0.377400000000     0          
O        O      0.698100000000     0.427950000000     0.471733333333     0          
O        O      0.750000000000     0.415200000000     0.432500000000     0          
O        O      0.709150000000     0.375000000000     0.453566666667     0          
O        O      0.645500000000     0.464750000000     0.636266666667     0          
O        O      0.661900000000     0.018550000000     0.633333333333     0          
O        O      0.688550000000     0.482300000000     0.588833333333     0          
O        O      0.699450000000     0.464000000000     0.524566666667     0          
O        O      0.708750000000     0.017850000000     0.540033333333     0          
O        O      0.750000000000     0.479250000000     0.564500000000     0          
O        O      0.600700000000     0.464600000000     0.353500000000     0          
T        Si     0.653250000000     0.407650000000     0.388566666667     0          
T        Si     0.711650000000     0.407550000000     0.440966666667     0          
T        Si     0.655200000000     0.490400000000     0.610266666667     0          
T        Si     0.711700000000     0.485850000000     0.554466666667     0          
T        Si     0.639500000000     0.459550000000     0.344333333333     0          
T        Si     0.688900000000     0.459700000000     0.484033333333     0          
O        O      0.850100000000     0.177550000000     0.645666666667     0          
O        O      0.810450000000     0.161900000000     0.594033333333     0          
O        O      0.851650000000     0.125000000000     0.622600000000     0          
O        O      0.801900000000     0.177950000000     0.528266666667     0          
O        O      0.750000000000     0.165200000000     0.567500000000     0          
O        O      0.790850000000     0.125000000000     0.546433333333     0          
O        O      0.854500000000     0.214750000000     0.363733333333     0          
O        O      0.838100000000     0.268550000000     0.366666666667     0          
O        O      0.811450000000     0.232300000000     0.411166666667     0          
O        O      0.800550000000     0.214000000000     0.475433333333     0          
O        O      0.791250000000     0.267850000000     0.459966666667     0          
O        O      0.750000000000     0.229250000000     0.435500000000     0          
O        O      0.899300000000     0.214600000000     0.646500000000     0          
T        Si     0.846750000000     0.157650000000     0.611433333333     0          
T        Si     0.788350000000     0.157550000000     0.559033333333     0          
T        Si     0.844800000000     0.240400000000     0.389733333333     0          
T        Si     0.788300000000     0.235850000000     0.445533333333     0          
T        Si     0.860500000000     0.209550000000     0.655666666667     0          
T        Si     0.811100000000     0.209700000000     0.515966666667     0          
O        O      0.649900000000     0.072450000000     0.645666666667     0          
O        O      0.689550000000     0.088100000000     0.594033333333     0          
O        O      0.648350000000     0.125000000000     0.622600000000     0          
O        O      0.698100000000     0.072050000000     0.528266666667     0          
O        O      0.750000000000     0.084800000000     0.567500000000     0          
O        O      0.709150000000     0.125000000000     0.546433333333     0          
O        O      0.645500000000     0.035250000000     0.363733333333     0          
O        O      0.661900000000     0.481450000000     0.366666666667     0          
O        O      0.688550000000     0.017700000000     0.411166666667     0          
O        O      0.699450000000     0.036000000000     0.475433333333     0          
O        O      0.708750000000     0.482150000000     0.459966666667     0          
O        O      0.750000000000     0.020750000000     0.435500000000     0          
O        O      0.600700000000     0.035400000000     0.646500000000     0          
T        Si     0.653250000000     0.092350000000     0.611433333333     0          
T        Si     0.711650000000     0.092450000000     0.559033333333     0          
T        Si     0.655200000000     0.009600000000     0.389733333333     0          
T        Si     0.711700000000     0.014150000000     0.445533333333     0          
T        Si     0.639500000000     0.040450000000     0.655666666667     0          
T        Si     0.688900000000     0.040300000000     0.515966666667     0          
O        O      0.649900000000     0.177550000000     0.645666666667     0          
O        O      0.689550000000     0.161900000000     0.594033333333     0          
O        O      0.698100000000     0.177950000000     0.528266666667     0          
O        O      0.645500000000     0.214750000000     0.363733333333     0          
O        O      0.661900000000     0.268550000000     0.366666666667     0          
O        O      0.688550000000     0.232300000000     0.411166666667     0          
O        O      0.699450000000     0.214000000000     0.475433333333     0          
O        O      0.708750000000     0.267850000000     0.459966666667     0          
O        O      0.600700000000     0.214600000000     0.646500000000     0          
T        Si     0.653250000000     0.157650000000     0.611433333333     0          
T        Si     0.711650000000     0.157550000000     0.559033333333     0          
T        Si     0.655200000000     0.240400000000     0.389733333333     0          
T        Si     0.711700000000     0.235850000000     0.445533333333     0          
T        Si     0.639500000000     0.209550000000     0.655666666667     0          
T        Si     0.688900000000     0.209700000000     0.515966666667     0          
O        O      0.850100000000     0.072450000000     0.645666666667     0          
O        O      0.810450000000     0.088100000000     0.594033333333     0          
O        O      0.801900000000     0.072050000000     0.528266666667     0          
O        O      0.854500000000     0.035250000000     0.363733333333     0          
O        O      0.838100000000     0.481450000000     0.366666666667     0          
O        O      0.811450000000     0.017700000000     0.411166666667     0          
O        O      0.800550000000     0.036000000000     0.475433333333     0          
O        O      0.791250000000     0.482150000000     0.459966666667     0          
O        O      0.899300000000     0.035400000000     0.646500000000     0          
T        Si     0.846750000000     0.092350000000     0.611433333333     0          
T        Si     0.788350000000     0.092450000000     0.559033333333     0          
T        Si     0.844800000000     0.009600000000     0.389733333333     0          
T        Si     0.788300000000     0.014150000000     0.445533333333     0          
T        Si     0.860500000000     0.040450000000     0.655666666667     0          
T        Si     0.811100000000     0.040300000000     0.515966666667     0          
O        O      0.649900000000     0.322450000000     0.354333333333     0          
O        O      0.689550000000     0.338100000000     0.405966666667     0          
O        O      0.698100000000     0.322050000000     0.471733333333     0          
O        O      0.645500000000     0.285250000000     0.636266666667     0          
O        O      0.661900000000     0.231450000000     0.633333333333     0          
O        O      0.688550000000     0.267700000000     0.588833333333     0          
O        O      0.699450000000     0.286000000000     0.524566666667     0          
O        O      0.708750000000     0.232150000000     0.540033333333     0          
O        O      0.600700000000     0.285400000000     0.353500000000     0          
T        Si     0.653250000000     0.342350000000     0.388566666667     0          
T        Si     0.711650000000     0.342450000000     0.440966666667     0          
T        Si     0.655200000000     0.259600000000     0.610266666667     0          
T        Si     0.711700000000     0.264150000000     0.554466666667     0          
T        Si     0.639500000000     0.290450000000     0.344333333333     0          
T        Si     0.688900000000     0.290300000000     0.484033333333     0          
O        O      0.850100000000     0.427550000000     0.354333333333     0          
O        O      0.810450000000     0.411900000000     0.405966666667     0          
O        O      0.801900000000     0.427950000000     0.471733333333     0          
O        O      0.854500000000     0.464750000000     0.636266666667     0          
O        O      0.838100000000     0.018550000000     0.633333333333     0          
O        O      0.811450000000     0.482300000000     0.588833333333     0          
O        O      0.800550000000     0.464000000000     0.524566666667     0          
O        O      0.791250000000     0.017850000000     0.540033333333     0          
O        O      0.899300000000     0.464600000000     0.353500000000     0          
T        Si     0.846750000000     0.407650000000     0.388566666667     0          
T        Si     0.788350000000     0.407550000000     0.440966666667     0          
T        Si     0.844800000000     0.490400000000     0.610266666667     0          
T        Si     0.788300000000     0.485850000000     0.554466666667     0          
T        Si     0.860500000000     0.459550000000     0.344333333333     0          
T        Si     0.811100000000     0.459700000000     0.484033333333     0          
O        O      0.600100000000     0.072450000000     0.854333333333     0          
O        O      0.560450000000     0.088100000000     0.905966666667     0          
O        O      0.601650000000     0.125000000000     0.877400000000     0          
O        O      0.625000000000     0.083550000000     0.916666666667     0          
O        O      0.551900000000     0.072050000000     0.971733333333     0          
O        O      0.500000000000     0.084800000000     0.932500000000     0          
O        O      0.540850000000     0.125000000000     0.953566666667     0          
O        O      0.604500000000     0.035250000000     0.802933333333     0          
O        O      0.588100000000     0.481450000000     0.800000000000     0          
O        O      0.561450000000     0.017700000000     0.755500000000     0          
O        O      0.625000000000     0.003800000000     0.750000000000     0          
O        O      0.550550000000     0.036000000000     0.691233333333     0          
O        O      0.541250000000     0.482150000000     0.706700000000     0          
O        O      0.500000000000     0.020750000000     0.731166666667     0          
O        O      0.649300000000     0.035400000000     0.853500000000     0          
T        Si     0.596750000000     0.092350000000     0.888566666667     0          
T        Si     0.538350000000     0.092450000000     0.940966666667     0          
T        Si     0.594800000000     0.009600000000     0.776933333333     0          
T        Si     0.538300000000     0.014150000000     0.721133333333     0          
T        Si     0.610500000000     0.040450000000     0.844333333333     0          
T        Si     0.561100000000     0.040300000000     0.984033333333     0          
O        O      0.899900000000     0.177550000000     0.854333333333     0          
O        O      0.939550000000     0.161900000000     0.905966666667     0          
O        O      0.898350000000     0.125000000000     0.877400000000     0          
O        O      0.875000000000     0.166450000000     0.916666666667     0          
O        O      0.948100000000     0.177950000000     0.971733333333     0          
O        O      0.500000000000     0.165200000000     0.932500000000     0          
O        O      0.959150000000     0.125000000000     0.953566666667     0          
O        O      0.895500000000     0.214750000000     0.802933333333     0          
O        O      0.911900000000     0.268550000000     0.800000000000     0          
O        O      0.938550000000     0.232300000000     0.755500000000     0          
O        O      0.875000000000     0.246200000000     0.750000000000     0          
O        O      0.949450000000     0.214000000000     0.691233333333     0          
O        O      0.958750000000     0.267850000000     0.706700000000     0          
O        O      0.500000000000     0.229250000000     0.731166666667     0          
O        O      0.850700000000     0.214600000000     0.853500000000     0          
T        Si     0.903250000000     0.157650000000     0.888566666667     0          
T        Si     0.961650000000     0.157550000000     0.940966666667     0          
T        Si     0.905200000000     0.240400000000     0.776933333333     0          
T        Si     0.961700000000     0.235850000000     0.721133333333     0          
T        Si     0.889500000000     0.209550000000     0.844333333333     0          
T        Si     0.938900000000     0.209700000000     0.984033333333     0          
O        O      0.600100000000     0.427550000000     0.812333333333     0          
O        O      0.560450000000     0.411900000000     0.760700000000     0          
O        O      0.601650000000     0.375000000000     0.789266666667     0          
O        O      0.625000000000     0.416450000000     0.750000000000     0          
O        O      0.551900000000     0.427950000000     0.694933333333     0          
O        O      0.500000000000     0.415200000000     0.734166666667     0          
O        O      0.540850000000     0.375000000000     0.713100000000     0          
O        O      0.604500000000     0.464750000000     0.863733333333     0          
O        O      0.588100000000     0.018550000000     0.866666666667     0          
O        O      0.561450000000     0.482300000000     0.911166666667     0          
O        O      0.625000000000     0.496200000000     0.916666666667     0          
O        O      0.550550000000     0.464000000000     0.975433333333     0          
O        O      0.541250000000     0.017850000000     0.959966666667     0          
O        O      0.500000000000     0.479250000000     0.935500000000     0          
O        O      0.649300000000     0.464600000000     0.813166666667     0          
T        Si     0.596750000000     0.407650000000     0.778100000000     0          
T        Si     0.538350000000     0.407550000000     0.725700000000     0          
T        Si     0.594800000000     0.490400000000     0.889733333333     0          
T        Si     0.538300000000     0.485850000000     0.945533333333     0          
T        Si     0.610500000000     0.459550000000     0.822333333333     0          
T        Si     0.561100000000     0.459700000000     0.682633333333     0          
O        O      0.899900000000     0.322450000000     0.812333333333     0          
O        O      0.939550000000     0.338100000000     0.760700000000     0          
O        O      0.898350000000     0.375000000000     0.789266666667     0          
O        O      0.875000000000     0.333550000000     0.750000000000     0          
O        O      0.948100000000     0.322050000000     0.694933333333     0          
O        O      0.500000000000     0.334800000000     0.734166666667     0          
O        O      0.959150000000     0.375000000000     0.713100000000     0          
O        O      0.895500000000     0.285250000000     0.863733333333     0          
O        O      0.911900000000     0.231450000000     0.866666666667     0          
O        O      0.938550000000     0.267700000000     0.911166666667     0          
O        O      0.875000000000     0.253800000000     0.916666666667     0          
O        O      0.949450000000     0.286000000000     0.975433333333     0          
O        O      0.958750000000     0.232150000000     0.959966666667     0          
O        O      0.500000000000     0.270750000000     0.935500000000     0          
O        O      0.850700000000     0.285400000000     0.813166666667     0          
T        Si     0.903250000000     0.342350000000     0.778100000000     0          
T        Si     0.961650000000     0.342450000000     0.725700000000     0          
T        Si     0.905200000000     0.259600000000     0.889733333333     0          
T        Si     0.961700000000     0.264150000000     0.945533333333     0          
T        Si     0.889500000000     0.290450000000     0.822333333333     0          
T        Si     0.938900000000     0.290300000000     0.682633333333     0          
O        O      0.899900000000     0.427550000000     0.812333333333     0          
O        O      0.939550000000     0.411900000000     0.760700000000     0          
O        O      0.875000000000     0.416450000000     0.750000000000     0          
O        O      0.948100000000     0.427950000000     0.694933333333     0          
O        O      0.895500000000     0.464750000000     0.863733333333     0          
O        O      0.911900000000     0.018550000000     0.866666666667     0          
O        O      0.938550000000     0.482300000000     0.911166666667     0          
O        O      0.875000000000     0.496200000000     0.916666666667     0          
O        O      0.949450000000     0.464000000000     0.975433333333     0          
O        O      0.958750000000     0.017850000000     0.959966666667     0          
O        O      0.850700000000     0.464600000000     0.813166666667     0          
T        Si     0.903250000000     0.407650000000     0.778100000000     0          
T        Si     0.961650000000     0.407550000000     0.725700000000     0          
T        Si     0.905200000000     0.490400000000     0.889733333333     0          
T        Si     0.961700000000     0.485850000000     0.945533333333     0          
T        Si     0.889500000000     0.459550000000     0.822333333333     0          
T        Si     0.938900000000     0.459700000000     0.682633333333     0          
O        O      0.600100000000     0.322450000000     0.812333333333     0          
O        O      0.560450000000     0.338100000000     0.760700000000     0          
O        O      0.625000000000     0.333550000000     0.750000000000     0          
O        O      0.551900000000     0.322050000000     0.694933333333     0          
O        O      0.604500000000     0.285250000000     0.863733333333     0          
O        O      0.588100000000     0.231450000000     0.866666666667     0          
O        O      0.561450000000     0.267700000000     0.911166666667     0          
O        O      0.625000000000     0.253800000000     0.916666666667     0          
O        O      0.550550000000     0.286000000000     0.975433333333     0          
O        O      0.541250000000     0.232150000000     0.959966666667     0          
O        O      0.649300000000     0.285400000000     0.813166666667     0          
T        Si     0.596750000000     0.342350000000     0.778100000000     0          
T        Si     0.538350000000     0.342450000000     0.725700000000     0          
T        Si     0.594800000000     0.259600000000     0.889733333333     0          
T        Si     0.538300000000     0.264150000000     0.945533333333     0          
T        Si     0.610500000000     0.290450000000     0.822333333333     0          
T        Si     0.561100000000     0.290300000000     0.682633333333     0          
O        O      0.899900000000     0.072450000000     0.854333333333     0          
O        O      0.939550000000     0.088100000000     0.905966666667     0          
O        O      0.875000000000     0.083550000000     0.916666666667     0          
O        O      0.948100000000     0.072050000000     0.971733333333     0          
O        O      0.895500000000     0.035250000000     0.802933333333     0          
O        O      0.911900000000     0.481450000000     0.800000000000     0          
O        O      0.938550000000     0.017700000000     0.755500000000     0          
O        O      0.875000000000     0.003800000000     0.750000000000     0          
O        O      0.949450000000     0.036000000000     0.691233333333     0          
O        O      0.958750000000     0.482150000000     0.706700000000     0          
O        O      0.850700000000     0.035400000000     0.853500000000     0          
T        Si     0.903250000000     0.092350000000     0.888566666667     0          
T        Si     0.961650000000     0.092450000000     0.940966666667     0          
T        Si     0.905200000000     0.009600000000     0.776933333333     0          
T        Si     0.961700000000     0.014150000000     0.721133333333     0          
T        Si     0.889500000000     0.040450000000     0.844333333333     0          
T        Si     0.938900000000     0.040300000000     0.984033333333     0          
O        O      0.600100000000     0.177550000000     0.854333333333     0          
O        O      0.560450000000     0.161900000000     0.905966666667     0          
O        O      0.625000000000     0.166450000000     0.916666666667     0          
O        O      0.551900000000     0.177950000000     0.971733333333     0          
O        O      0.604500000000     0.214750000000     0.802933333333     0          
O        O      0.588100000000     0.268550000000     0.800000000000     0          
O        O      0.561450000000     0.232300000000     0.755500000000     0          
O        O      0.625000000000     0.246200000000     0.750000000000     0          
O        O      0.550550000000     0.214000000000     0.691233333333     0          
O        O      0.541250000000     0.267850000000     0.706700000000     0          
O        O      0.649300000000     0.214600000000     0.853500000000     0          
T        Si     0.596750000000     0.157650000000     0.888566666667     0          
T        Si     0.538350000000     0.157550000000     0.940966666667     0          
T        Si     0.594800000000     0.240400000000     0.776933333333     0          
T        Si     0.538300000000     0.235850000000     0.721133333333     0          
T        Si     0.610500000000     0.209550000000     0.844333333333     0          
T        Si     0.561100000000     0.209700000000     0.984033333333     0          
O        O      0.850100000000     0.322450000000     0.687666666667     0          
O        O      0.810450000000     0.338100000000     0.739300000000     0          
O        O      0.851650000000     0.375000000000     0.710733333333     0          
O        O      0.801900000000     0.322050000000     0.805066666667     0          
O        O      0.750000000000     0.334800000000     0.765833333333     0          
O        O      0.790850000000     0.375000000000     0.786900000000     0          
O        O      0.854500000000     0.285250000000     0.969600000000     0          
O        O      0.838100000000     0.231450000000     0.966666666667     0          
O        O      0.811450000000     0.267700000000     0.922166666667     0          
O        O      0.800550000000     0.286000000000     0.857900000000     0          
O        O      0.791250000000     0.232150000000     0.873366666667     0          
O        O      0.750000000000     0.270750000000     0.897833333333     0          
O        O      0.899300000000     0.285400000000     0.686833333333     0          
T        Si     0.846750000000     0.342350000000     0.721900000000     0          
T        Si     0.788350000000     0.342450000000     0.774300000000     0          
T        Si     0.844800000000     0.259600000000     0.943600000000     0          
T        Si     0.788300000000     0.264150000000     0.887800000000     0          
T        Si     0.860500000000     0.290450000000     0.677666666667     0          
T        Si     0.811100000000     0.290300000000     0.817366666667     0          
O        O      0.649900000000     0.427550000000     0.687666666667     0          
O        O      0.689550000000     0.411900000000     0.739300000000     0          
O        O      0.648350000000     0.375000000000     0.710733333333     0          
O        O      0.698100000000     0.427950000000     0.805066666667     0          
O        O      0.750000000000     0.415200000000     0.765833333333     0          
O        O      0.709150000000     0.375000000000     0.786900000000     0          
O        O      0.645500000000     0.464750000000     0.969600000000     0          
O        O      0.661900000000     0.018550000000     0.966666666667     0          
O        O      0.688550000000     0.482300000000     0.922166666667     0          
O        O      0.699450000000     0.464000000000     0.857900000000     0          
O        O      0.708750000000     0.017850000000     0.873366666667     0          
O        O      0.750000000000     0.479250000000     0.897833333333     0          
O        O      0.600700000000     0.464600000000     0.686833333333     0          
T        Si     0.653250000000     0.407650000000     0.721900000000     0          
T        Si     0.711650000000     0.407550000000     0.774300000000     0          
T        Si     0.655200000000     0.490400000000     0.943600000000     0          
T        Si     0.711700000000     0.485850000000     0.887800000000     0          
T        Si     0.639500000000     0.459550000000     0.677666666667     0          
T        Si     0.688900000000     0.459700000000     0.817366666667     0          
O        O      0.850100000000     0.177550000000     0.979000000000     0          
O        O      0.810450000000     0.161900000000     0.927366666667     0          
O        O      0.851650000000     0.125000000000     0.955933333333     0          
O        O      0.801900000000     0.177950000000     0.861600000000     0          
O        O      0.750000000000     0.165200000000     0.900833333333     0          
O        O      0.790850000000     0.125000000000     0.879766666667     0          
O        O      0.854500000000     0.214750000000     0.697066666667     0          
O        O      0.838100000000     0.268550000000     0.700000000000     0          
O        O      0.811450000000     0.232300000000     0.744500000000     0          
O        O      0.800550000000     0.214000000000     0.808766666667     0          
O        O      0.791250000000     0.267850000000     0.793300000000     0          
O        O      0.750000000000     0.229250000000     0.768833333333     0          
O        O      0.899300000000     0.214600000000     0.979833333333     0          
T        Si     0.846750000000     0.157650000000     0.944766666667     0          
T        Si     0.788350000000     0.157550000000     0.892366666667     0          
T        Si     0.844800000000     0.240400000000     0.723066666667     0          
T        Si     0.788300000000     0.235850000000     0.778866666667     0          
T        Si     0.860500000000     0.209550000000     0.989000000000     0          
T        Si     0.811100000000     0.209700000000     0.849300000000     0          
O        O      0.649900000000     0.072450000000     0.979000000000     0          
O        O      0.689550000000     0.088100000000     0.927366666667     0          
O        O      0.648350000000     0.125000000000     0.955933333333     0          
O        O      0.698100000000     0.072050000000     0.861600000000     0          
O        O      0.750000000000     0.084800000000     0.900833333333     0          
O        O      0.709150000000     0.125000000000     0.879766666667     0          
O        O      0.645500000000     0.035250000000     0.697066666667     0          
O        O      0.661900000000     0.481450000000     0.700000000000     0          
O        O      0.688550000000     0.017700000000     0.744500000000     0          
O        O      0.699450000000     0.036000000000     0.808766666667     0          
O        O      0.708750000000     0.482150000000     0.793300000000     0          
O        O      0.750000000000     0.020750000000     0.768833333333     0          
O        O      0.600700000000     0.035400000000     0.979833333333     0          
T        Si     0.653250000000     0.092350000000     0.944766666667     0          
T        Si     0.711650000000     0.092450000000     0.892366666667     0          
T        Si     0.655200000000     0.009600000000     0.723066666667     0          
T        Si     0.711700000000     0.014150000000     0.778866666667     0          
T        Si     0.639500000000     0.040450000000     0.989000000000     0          
T        Si     0.688900000000     0.040300000000     0.849300000000     0          
O        O      0.649900000000     0.177550000000     0.979000000000     0          
O        O      0.689550000000     0.161900000000     0.927366666667     0          
O        O      0.698100000000     0.177950000000     0.861600000000     0          
O        O      0.645500000000     0.214750000000     0.697066666667     0          
O        O      0.661900000000     0.268550000000     0.700000000000     0          
O        O      0.688550000000     0.232300000000     0.744500000000     0          
O        O      0.699450000000     0.214000000000     0.808766666667     0          
O        O      0.708750000000     0.267850000000     0.793300000000     0          
O        O      0.600700000000     0.214600000000     0.979833333333     0          
T        Si     0.653250000000     0.157650000000     0.944766666667     0          
T        Si     0.711650000000     0.157550000000     0.892366666667     0          
T        Si     0.655200000000     0.240400000000     0.723066666667     0          
T        Si     0.711700000000     0.235850000000     0.778866666667     0          
T        Si     0.639500000000     0.209550000000     0.989000000000     0          
T        Si     0.688900000000     0.209700000000     0.849300000000     0          
O        O      0.850100000000     0.072450000000     0.979000000000     0          
O        O      0.810450000000     0.088100000000     0.927366666667     0          
O        O      0.801900000000     0.072050000000     0.861600000000     0          
O        O      0.854500000000     0.035250000000     0.697066666667     0          
O        O      0.838100000000     0.481450000000     0.700000000000     0          
O        O      0.811450000000     0.017700000000     0.744500000000     0          
O        O      0.800550000000     0.036000000000     0.808766666667     0          
O        O      0.791250000000     0.482150000000     0.793300000000     0          
O        O      0.899300000000     0.035400000000     0.979833333333     0          
T        Si     0.846750000000     0.092350000000     0.944766666667     0          
T        Si     0.788350000000     0.092450000000     0.892366666667     0          
T        Si     0.844800000000     0.009600000000     0.723066666667     0          
T        Si     0.788300000000     0.014150000000     0.778866666667     0          
T        Si     0.860500000000     0.040450000000     0.989000000000     0          
T        Si     0.811100000000     0.040300000000     0.849300000000     0          
O        O      0.649900000000     0.322450000000     0.687666666667     0          
O        O      0.689550000000     0.338100000000     0.739300000000     0          
O        O      0.698100000000     0.322050000000     0.805066666667     0          
O        O      0.645500000000     0.285250000000     0.969600000000     0          
O        O      0.661900000000     0.231450000000     0.966666666667     0          
O        O      0.688550000000     0.267700000000     0.922166666667     0          
O        O      0.699450000000     0.286000000000     0.857900000000     0          
O        O      0.708750000000     0.232150000000     0.873366666667     0          
O        O      0.600700000000     0.285400000000     0.686833333333     0          
T        Si     0.653250000000     0.342350000000     0.721900000000     0          
T        Si     0.711650000000     0.342450000000     0.774300000000     0          
T        Si     0.655200000000     0.259600000000     0.943600000000     0          
T        Si     0.711700000000     0.264150000000     0.887800000000     0          
T        Si     0.639500000000     0.290450000000     0.677666666667     0          
T        Si     0.688900000000     0.290300000000     0.817366666667     0          
O        O      0.850100000000     0.427550000000     0.687666666667     0          
O        O      0.810450000000     0.411900000000     0.739300000000     0          
O        O      0.801900000000     0.427950000000     0.805066666667     0          
O        O      0.854500000000     0.464750000000     0.969600000000     0          
O        O      0.838100000000     0.018550000000     0.966666666667     0          
O        O      0.811450000000     0.482300000000     0.922166666667     0          
O        O      0.800550000000     0.464000000000     0.857900000000     0          
O        O      0.791250000000     0.017850000000     0.873366666667     0          
O        O      0.899300000000     0.464600000000     0.686833333333     0          
T        Si     0.846750000000     0.407650000000     0.721900000000     0          
T        Si     0.788350000000     0.407550000000     0.774300000000     0          
T        Si     0.844800000000     0.490400000000     0.943600000000     0          
T        Si     0.788300000000     0.485850000000     0.887800000000     0          
T        Si     0.860500000000     0.459550000000     0.677666666667     0          
T        Si     0.811100000000     0.459700000000     0.817366666667     0          
O        O      0.600100000000     0.572450000000     0.187666666667     0          
O        O      0.560450000000     0.588100000000     0.239300000000     0          
O        O      0.601650000000     0.625000000000     0.210733333333     0          
O        O      0.625000000000     0.583550000000     0.250000000000     0          
O        O      0.551900000000     0.572050000000     0.305066666667     0          
O        O      0.500000000000     0.584800000000     0.265833333333     0          
O        O      0.540850000000     0.625000000000     0.286900000000     0          
O        O      0.604500000000     0.535250000000     0.136266666667     0          
O        O      0.588100000000     0.981450000000     0.133333333333     0          
O        O      0.561450000000     0.517700000000     0.088833333333     0          
O        O      0.625000000000     0.503800000000     0.083333333333     0          
O        O      0.550550000000     0.536000000000     0.024566666667     0          
O        O      0.541250000000     0.982150000000     0.040033333333     0          
O        O      0.500000000000     0.520750000000     0.064500000000     0          
O        O      0.649300000000     0.535400000000     0.186833333333     0          
T        Si     0.596750000000     0.592350000000     0.221900000000     0          
T        Si     0.538350000000     0.592450000000     0.274300000000     0          
T        Si     0.594800000000     0.509600000000     0.110266666667     0          
T        Si     0.538300000000     0.514150000000     0.054466666667     0          
T        Si     0.610500000000     0.540450000000     0.177666666667     0          
T        Si     0.561100000000     0.540300000000     0.317366666667     0          
O        O      0.899900000000     0.677550000000     0.187666666667     0          
O        O      0.939550000000     0.661900000000     0.239300000000     0          
O        O      0.898350000000     0.625000000000     0.210733333333     0          
O        O      0.875000000000     0.666450000000     0.250000000000     0          
O        O      0.948100000000     0.677950000000     0.305066666667     0          
O        O      0.500000000000     0.665200000000     0.265833333333     0          
O        O      0.959150000000     0.625000000000     0.286900000000     0          
O        O      0.895500000000     0.714750000000     0.136266666667     0          
O        O      0.911900000000     0.768550000000     0.133333333333     0          
O        O      0.938550000000     0.732300000000     0.088833333333     0          
O        O      0.875000000000     0.746200000000     0.083333333333     0          
O        O      0.949450000000     0.714000000000     0.024566666667     0          
O        O      0.958750000000     0.767850000000     0.040033333333     0          
O        O      0.500000000000     0.729250000000     0.064500000000     0          
O        O      0.850700000000     0.714600000000     0.186833333333     0          
T        Si     0.903250000000     0.657650000000     0.221900000000     0          
T        Si     0.961650000000     0.657550000000     0.274300000000     0          
T        Si     0.905200000000     0.740400000000     0.110266666667     0          
T        Si     0.961700000000     0.735850000000     0.054466666667     0          
T        Si     0.889500000000     0.709550000000     0.177666666667     0          
T        Si     0.938900000000     0.709700000000     0.317366666667     0          
O        O      0.600100000000     0.927550000000     0.145666666667     0          
O        O      0.560450000000     0.911900000000     0.094033333333     0          
O        O      0.601650000000     0.875000000000     0.122600000000     0          
O        O      0.625000000000     0.916450000000     0.083333333333     0          
O        O      0.551900000000     0.927950000000     0.028266666667     0          
O        O      0.500000000000     0.915200000000     0.067500000000     0          
O        O      0.540850000000     0.875000000000     0.046433333333     0          
O        O      0.604500000000     0.964750000000     0.197066666667     0          
O        O      0.588100000000     0.518550000000     0.200000000000     0          
O        O      0.561450000000     0.982300000000     0.244500000000     0          
O        O      0.625000000000     0.996200000000     0.250000000000     0          
O        O      0.550550000000     0.964000000000     0.308766666667     0          
O        O      0.541250000000     0.517850000000     0.293300000000     0          
O        O      0.500000000000     0.979250000000     0.268833333333     0          
O        O      0.649300000000     0.964600000000     0.146500000000     0          
T        Si     0.596750000000     0.907650000000     0.111433333333     0          
T        Si     0.538350000000     0.907550000000     0.059033333333     0          
T        Si     0.594800000000     0.990400000000     0.223066666667     0          
T        Si     0.538300000000     0.985850000000     0.278866666667     0          
T        Si     0.610500000000     0.959550000000     0.155666666667     0          
T        Si     0.561100000000     0.959700000000     0.015966666667     0          
O        O      0.899900000000     0.822450000000     0.145666666667     0          
O        O      0.939550000000     0.838100000000     0.094033333333     0          
O        O      0.898350000000     0.875000000000     0.122600000000     0          
O        O      0.875000000000     0.833550000000     0.083333333333     0          
O        O      0.948100000000     0.822050000000     0.028266666667     0          
O        O      0.500000000000     0.834800000000     0.067500000000     0          
O        O      0.959150000000     0.875000000000     0.046433333333     0          
O        O      0.895500000000     0.785250000000     0.197066666667     0          
O        O      0.911900000000     0.731450000000     0.200000000000     0          
O        O      0.938550000000     0.767700000000     0.244500000000     0          
O        O      0.875000000000     0.753800000000     0.250000000000     0          
O        O      0.949450000000     0.786000000000     0.308766666667     0          
O        O      0.958750000000     0.732150000000     0.293300000000     0          
O        O      0.500000000000     0.770750000000     0.268833333333     0          
O        O      0.850700000000     0.785400000000     0.146500000000     0          
T        Si     0.903250000000     0.842350000000     0.111433333333     0          
T        Si     0.961650000000     0.842450000000     0.059033333333     0          
T        Si     0.905200000000     0.759600000000     0.223066666667     0          
T        Si     0.961700000000     0.764150000000     0.278866666667     0          
T        Si     0.889500000000     0.790450000000     0.155666666667     0          
T        Si     0.938900000000     0.790300000000     0.015966666667     0          
O        O      0.899900000000     0.927550000000     0.145666666667     0          
O        O      0.939550000000     0.911900000000     0.094033333333     0          
O        O      0.875000000000     0.916450000000     0.083333333333     0          
O        O      0.948100000000     0.927950000000     0.028266666667     0          
O        O      0.895500000000     0.964750000000     0.197066666667     0          
O        O      0.911900000000     0.518550000000     0.200000000000     0          
O        O      0.938550000000     0.982300000000     0.244500000000     0          
O        O      0.875000000000     0.996200000000     0.250000000000     0          
O        O      0.949450000000     0.964000000000     0.308766666667     0          
O        O      0.958750000000     0.517850000000     0.293300000000     0          
O        O      0.850700000000     0.964600000000     0.146500000000     0          
T        Si     0.903250000000     0.907650000000     0.111433333333     0          
T        Si     0.961650000000     0.907550000000     0.059033333333     0          
T        Si     0.905200000000     0.990400000000     0.223066666667     0          
T        Si     0.961700000000     0.985850000000     0.278866666667     0          
T        Si     0.889500000000     0.959550000000     0.155666666667     0          
T        Si     0.938900000000     0.959700000000     0.015966666667     0          
O        O      0.600100000000     0.822450000000     0.145666666667     0          
O        O      0.560450000000     0.838100000000     0.094033333333     0          
O        O      0.625000000000     0.833550000000     0.083333333333     0          
O        O      0.551900000000     0.822050000000     0.028266666667     0          
O        O      0.604500000000     0.785250000000     0.197066666667     0          
O        O      0.588100000000     0.731450000000     0.200000000000     0          
O        O      0.561450000000     0.767700000000     0.244500000000     0          
O        O      0.625000000000     0.753800000000     0.250000000000     0          
O        O      0.550550000000     0.786000000000     0.308766666667     0          
O        O      0.541250000000     0.732150000000     0.293300000000     0          
O        O      0.649300000000     0.785400000000     0.146500000000     0          
T        Si     0.596750000000     0.842350000000     0.111433333333     0          
T        Si     0.538350000000     0.842450000000     0.059033333333     0          
T        Si     0.594800000000     0.759600000000     0.223066666667     0          
T        Si     0.538300000000     0.764150000000     0.278866666667     0          
T        Si     0.610500000000     0.790450000000     0.155666666667     0          
T        Si     0.561100000000     0.790300000000     0.015966666667     0          
O        O      0.899900000000     0.572450000000     0.187666666667     0          
O        O      0.939550000000     0.588100000000     0.239300000000     0          
O        O      0.875000000000     0.583550000000     0.250000000000     0          
O        O      0.948100000000     0.572050000000     0.305066666667     0          
O        O      0.895500000000     0.535250000000     0.136266666667     0          
O        O      0.911900000000     0.981450000000     0.133333333333     0          
O        O      0.938550000000     0.517700000000     0.088833333333     0          
O        O      0.875000000000     0.503800000000     0.083333333333     0          
O        O      0.949450000000     0.536000000000     0.024566666667     0          
O        O      0.958750000000     0.982150000000     0.040033333333     0          
O        O      0.850700000000     0.535400000000     0.186833333333     0          
T        Si     0.903250000000     0.592350000000     0.221900000000     0          
T        Si     0.961650000000     0.592450000000     0.274300000000     0          
T        Si     0.905200000000     0.509600000000     0.110266666667     0          
T        Si     0.961700000000     0.514150000000     0.054466666667     0          
T        Si     0.889500000000     0.540450000000     0.177666666667     0          
T        Si     0.938900000000     0.540300000000     0.317366666667     0          
O        O      0.600100000000     0.677550000000     0.187666666667     0          
O        O      0.560450000000     0.661900000000     0.239300000000     0          
O        O      0.625000000000     0.666450000000     0.250000000000     0          
O        O      0.551900000000     0.677950000000     0.305066666667     0          
O        O      0.604500000000     0.714750000000     0.136266666667     0          
O        O      0.588100000000     0.768550000000     0.133333333333     0          
O        O      0.561450000000     0.732300000000     0.088833333333     0          
O        O      0.625000000000     0.746200000000     0.083333333333     0          
O        O      0.550550000000     0.714000000000     0.024566666667     0          
O        O      0.541250000000     0.767850000000     0.040033333333     0          
O        O      0.649300000000     0.714600000000     0.186833333333     0          
T        Si     0.596750000000     0.657650000000     0.221900000000     0          
T        Si     0.538350000000     0.657550000000     0.274300000000     0          
T        Si     0.594800000000     0.740400000000     0.110266666667     0          
T        Si     0.538300000000     0.735850000000     0.054466666667     0          
T        Si     0.610500000000     0.709550000000     0.177666666667     0          
T        Si     0.561100000000     0.709700000000     0.317366666667     0          
O        O      0.850100000000     0.822450000000     0.021000000000     0          
O        O      0.810450000000     0.838100000000     0.072633333333     0          
O        O      0.851650000000     0.875000000000     0.044066666667     0          
O        O      0.801900000000     0.822050000000     0.138400000000     0          
O        O      0.750000000000     0.834800000000     0.099166666667     0          
O        O      0.790850000000     0.875000000000     0.120233333333     0          
O        O      0.854500000000     0.785250000000     0.302933333333     0          
O        O      0.838100000000     0.731450000000     0.300000000000     0          
O        O      0.811450000000     0.767700000000     0.255500000000     0          
O        O      0.800550000000     0.786000000000     0.191233333333     0          
O        O      0.791250000000     0.732150000000     0.206700000000     0          
O        O      0.750000000000     0.770750000000     0.231166666667     0          
O        O      0.899300000000     0.785400000000     0.020166666667     0          
T        Si     0.846750000000     0.842350000000     0.055233333333     0          
T        Si     0.788350000000     0.842450000000     0.107633333333     0          
T        Si     0.844800000000     0.759600000000     0.276933333333     0          
T        Si     0.788300000000     0.764150000000     0.221133333333     0          
T        Si     0.860500000000     0.790450000000     0.011000000000     0          
T        Si     0.811100000000     0.790300000000     0.150700000000     0          
O        O      0.649900000000     0.927550000000     0.021000000000     0          
O        O      0.689550000000     0.911900000000     0.072633333333     0          
O        O      0.648350000000     0.875000000000     0.044066666667     0          
O        O      0.698100000000     0.927950000000     0.138400000000     0          
O        O      0.750000000000     0.915200000000     0.099166666667     0          
O        O      0.709150000000     0.875000000000     0.120233333333     0          
O        O      0.645500000000     0.964750000000     0.302933333333     0          
O        O      0.661900000000     0.518550000000     0.300000000000     0          
O        O      0.688550000000     0.982300000000     0.255500000000     0          
O        O      0.699450000000     0.964000000000     0.191233333333     0          
O        O      0.708750000000     0.517850000000     0.206700000000     0          
O        O      0.750000000000     0.979250000000     0.231166666667     0          
O        O      0.600700000000     0.964600000000     0.020166666667     0          
T        Si     0.653250000000     0.907650000000     0.055233333333     0          
T        Si     0.711650000000     0.907550000000     0.107633333333     0          
T        Si     0.655200000000     0.990400000000     0.276933333333     0          
T        Si     0.711700000000     0.985850000000     0.221133333333     0          
T        Si     0.639500000000     0.959550000000     0.011000000000     0          
T        Si     0.688900000000     0.959700000000     0.150700000000     0          
O        O      0.850100000000     0.677550000000     0.312333333333     0          
O        O      0.810450000000     0.661900000000     0.260700000000     0          
O        O      0.851650000000     0.625000000000     0.289266666667     0          
O        O      0.801900000000     0.677950000000     0.194933333333     0          
O        O      0.750000000000     0.665200000000     0.234166666667     0          
O        O      0.790850000000     0.625000000000     0.213100000000     0          
O        O      0.854500000000     0.714750000000     0.030400000000     0          
O        O      0.838100000000     0.768550000000     0.033333333333     0          
O        O      0.811450000000     0.732300000000     0.077833333333     0          
O        O      0.800550000000     0.714000000000     0.142100000000     0          
O        O      0.791250000000     0.767850000000     0.126633333333     0          
O        O      0.750000000000     0.729250000000     0.102166666667     0          
O        O      0.899300000000     0.714600000000     0.313166666667     0          
T        Si     0.846750000000     0.657650000000     0.278100000000     0          
T        Si     0.788350000000     0.657550000000     0.225700000000     0          
T        Si     0.844800000000     0.740400000000     0.056400000000     0          
T        Si     0.788300000000     0.735850000000     0.112200000000     0          
T        Si     0.860500000000     0.709550000000     0.322333333333     0          
T        Si     0.811100000000     0.709700000000     0.182633333333     0          
O        O      0.649900000000     0.572450000000     0.312333333333     0          
O        O      0.689550000000     0.588100000000     0.260700000000     0          
O        O      0.648350000000     0.625000000000     0.289266666667     0          
O        O      0.698100000000     0.572050000000     0.194933333333     0          
O        O      0.750000000000     0.584800000000     0.234166666667     0          
O        O      0.709150000000     0.625000000000     0.213100000000     0          
O        O      0.645500000000     0.535250000000     0.030400000000     0          
O        O      0.661900000000     0.981450000000     0.033333333333     0          
O        O      0.688550000000     0.517700000000     0.077833333333     0          
O        O      0.699450000000     0.536000000000     0.142100000000     0          
O        O      0.708750000000     0.982150000000     0.126633333333     0          
O        O      0.750000000000     0.520750000000     0.102166666667     0          
O        O      0.600700000000     0.535400000000     0.313166666667     0          
T        Si     0.653250000000     0.592350000000     0.278100000000     0          
T        Si     0.711650000000     0.592450000000     0.225700000000     0          
T        Si     0.655200000000     0.509600000000     0.056400000000     0          
T        Si     0.711700000000     0.514150000000     0.112200000000     0          
T        Si     0.639500000000     0.540450000000     0.322333333333     0          
T        Si     0.688900000000     0.540300000000     0.182633333333     0          
O        O      0.649900000000     0.677550000000     0.312333333333     0          
O        O      0.689550000000     0.661900000000     0.260700000000     0          
O        O      0.698100000000     0.677950000000     0.194933333333     0          
O        O      0.645500000000     0.714750000000     0.030400000000     0          
O        O      0.661900000000     0.768550000000     0.033333333333     0          
O        O      0.688550000000     0.732300000000     0.077833333333     0          
O        O      0.699450000000     0.714000000000     0.142100000000     0          
O        O      0.708750000000     0.767850000000     0.126633333333     0          
O        O      0.600700000000     0.714600000000     0.313166666667     0          
T        Si     0.653250000000     0.657650000000     0.278100000000     0          
T        Si     0.711650000000     0.657550000000     0.225700000000     0          
T        Si     0.655200000000     0.740400000000     0.056400000000     0          
T        Si     0.711700000000     0.735850000000     0.112200000000     0          
T        Si     0.639500000000     0.709550000000     0.322333333333     0          
T        Si     0.688900000000     0.709700000000     0.182633333333     0          
O        O      0.850100000000     0.572450000000     0.312333333333     0          
O        O      0.810450000000     0.588100000000     0.260700000000     0          
O        O      0.801900000000     0.572050000000     0.194933333333     0          
O        O      0.854500000000     0.535250000000     0.030400000000     0          
O        O      0.838100000000     0.981450000000     0.033333333333     0          
O        O      0.811450000000     0.517700000000     0.077833333333     0          
O        O      0.800550000000     0.536000000000     0.142100000000     0          
O        O      0.791250000000     0.982150000000     0.126633333333     0          
O        O      0.899300000000     0.535400000000     0.313166666667     0          
T        Si     0.846750000000     0.592350000000     0.278100000000     0          
T        Si     0.788350000000     0.592450000000     0.225700000000     0          
T        Si     0.844800000000     0.509600000000     0.056400000000     0          
T        Si     0.788300000000     0.514150000000     0.112200000000     0          
T        Si     0.860500000000     0.540450000000     0.322333333333     0          
T        Si     0.811100000000     0.540300000000     0.182633333333     0          
O        O      0.649900000000     0.822450000000     0.021000000000     0          
O        O      0.689550000000     0.838100000000     0.072633333333     0          
O        O      0.698100000000     0.822050000000     0.138400000000     0          
O        O      0.645500000000     0.785250000000     0.302933333333     0          
O        O      0.661900000000     0.731450000000     0.300000000000     0          
O        O      0.688550000000     0.767700000000     0.255500000000     0          
O        O      0.699450000000     0.786000000000     0.191233333333     0          
O        O      0.708750000000     0.732150000000     0.206700000000     0          
O        O      0.600700000000     0.785400000000     0.020166666667     0          
T        Si     0.653250000000     0.842350000000     0.055233333333     0          
T        Si     0.711650000000     0.842450000000     0.107633333333     0          
T        Si     0.655200000000     0.759600000000     0.276933333333     0          
T        Si     0.711700000000     0.764150000000     0.221133333333     0          
T        Si     0.639500000000     0.790450000000     0.011000000000     0          
T        Si     0.688900000000     0.790300000000     0.150700000000     0          
O        O      0.850100000000     0.927550000000     0.021000000000     0          
O        O      0.810450000000     0.911900000000     0.072633333333     0          
O        O      0.801900000000     0.927950000000     0.138400000000     0          
O        O      0.854500000000     0.964750000000     0.302933333333     0          
O        O      0.838100000000     0.518550000000     0.300000000000     0          
O        O      0.811450000000     0.982300000000     0.255500000000     0          
O        O      0.800550000000     0.964000000000     0.191233333333     0          
O        O      0.791250000000     0.517850000000     0.206700000000     0          
O        O      0.899300000000     0.964600000000     0.020166666667     0          
T        Si     0.846750000000     0.907650000000     0.055233333333     0          
T        Si     0.788350000000     0.907550000000     0.107633333333     0          
T        Si     0.844800000000     0.990400000000     0.276933333333     0          
T        Si     0.788300000000     0.985850000000     0.221133333333     0          
T        Si     0.860500000000     0.959550000000     0.011000000000     0          
T        Si     0.811100000000     0.959700000000     0.150700000000     0          
O        O      0.600100000000     0.572450000000     0.521000000000     0          
O        O      0.560450000000     0.588100000000     0.572633333333     0          
O        O      0.601650000000     0.625000000000     0.544066666667     0          
O        O      0.625000000000     0.583550000000     0.583333333333     0          
O        O      0.551900000000     0.572050000000     0.638400000000     0          
O        O      0.500000000000     0.584800000000     0.599166666667     0          
O        O      0.540850000000     0.625000000000     0.620233333333     0          
O        O      0.604500000000     0.535250000000     0.469600000000     0          
O        O      0.588100000000     0.981450000000     0.466666666667     0          
O        O      0.561450000000     0.517700000000     0.422166666667     0          
O        O      0.625000000000     0.503800000000     0.416666666667     0          
O        O      0.550550000000     0.536000000000     0.357900000000     0          
O        O      0.541250000000     0.982150000000     0.373366666667     0          
O        O      0.500000000000     0.520750000000     0.397833333333     0          
O        O      0.649300000000     0.535400000000     0.520166666667     0          
T        Si     0.596750000000     0.592350000000     0.555233333333     0          
T        Si     0.538350000000     0.592450000000     0.607633333333     0          
T        Si     0.594800000000     0.509600000000     0.443600000000     0          
T        Si     0.538300000000     0.514150000000     0.387800000000     0          
T        Si     0.610500000000     0.540450000000     0.511000000000     0          
T        Si     0.561100000000     0.540300000000     0.650700000000     0          
O        O      0.899900000000     0.677550000000     0.521000000000     0          
O        O      0.939550000000     0.661900000000     0.572633333333     0          
O        O      0.898350000000     0.625000000000     0.544066666667     0          
O        O      0.875000000000     0.666450000000     0.583333333333     0          
O        O      0.948100000000     0.677950000000     0.638400000000     0          
O        O      0.500000000000     0.665200000000     0.599166666667     0          
O        O      0.959150000000     0.625000000000     0.620233333333     0          
O        O      0.895500000000     0.714750000000     0.469600000000     0          
O        O      0.911900000000     0.768550000000     0.466666666667     0          
O        O      0.938550000000     0.732300000000     0.422166666667     0          
O        O      0.875000000000     0.746200000000     0.416666666667     0          
O        O      0.949450000000     0.714000000000     0.357900000000     0          
O        O      0.958750000000     0.767850000000     0.373366666667     0          
O        O      0.500000000000     0.729250000000     0.397833333333     0          
O        O      0.850700000000     0.714600000000     0.520166666667     0          
T        Si     0.903250000000     0.657650000000     0.555233333333     0          
T        Si     0.961650000000     0.657550000000     0.607633333333     0          
T        Si     0.905200000000     0.740400000000     0.443600000000     0          
T        Si     0.961700000000     0.735850000000     0.387800000000     0          
T        Si     0.889500000000     0.709550000000     0.511000000000     0          
T        Si     0.938900000000     0.709700000000     0.650700000000     0          
O        O      0.600100000000     0.927550000000     0.479000000000     0          
O        O      0.560450000000     0.911900000000     0.427366666667     0          
O        O      0.601650000000     0.875000000000     0.455933333333     0          
O        O      0.625000000000     0.916450000000     0.416666666667     0          
O        O      0.551900000000     0.927950000000     0.361600000000     0          
O        O      0.500000000000     0.915200000000     0.400833333333     0          
O        O      0.540850000000     0.875000000000     0.379766666667     0          
O        O      0.604500000000     0.964750000000     0.530400000000     0          
O        O      0.588100000000     0.518550000000     0.533333333333     0          
O        O      0.561450000000     0.982300000000     0.577833333333     0          
O        O      0.625000000000     0.996200000000     0.583333333333     0          
O        O      0.550550000000     0.964000000000     0.642100000000     0          
O        O      0.541250000000     0.517850000000     0.626633333333     0          
O        O      0.500000000000     0.979250000000     0.602166666667     0          
O        O      0.649300000000     0.964600000000     0.479833333333     0          
T        Si     0.596750000000     0.907650000000     0.444766666667     0          
T        Si     0.538350000000     0.907550000000     0.392366666667     0          
T        Si     0.594800000000     0.990400000000     0.556400000000     0          
T        Si     0.538300000000     0.985850000000     0.612200000000     0          
T        Si     0.610500000000     0.959550000000     0.489000000000     0          
T        Si     0.561100000000     0.959700000000     0.349300000000     0          
O        O      0.899900000000     0.822450000000     0.479000000000     0          
O        O      0.939550000000     0.838100000000     0.427366666667     0          
O        O      0.898350000000     0.875000000000     0.455933333333     0          
O        O      0.875000000000     0.833550000000     0.416666666667     0          
O        O      0.948100000000     0.822050000000     0.361600000000     0          
O        O      0.500000000000     0.834800000000     0.400833333333     0          
O        O      0.959150000000     0.875000000000     0.379766666667     0          
O        O      0.895500000000     0.785250000000     0.530400000000     0          
O        O      0.911900000000     0.731450000000     0.533333333333     0          
O        O      0.938550000000     0.767700000000     0.577833333333     0          
O        O      0.875000000000     0.753800000000     0.583333333333     0          
O        O      0.949450000000     0.786000000000     0.642100000000     0          
O        O      0.958750000000     0.732150000000     0.626633333333     0          
O        O      0.500000000000     0.770750000000     0.602166666667     0          
O        O      0.850700000000     0.785400000000     0.479833333333     0          
T        Si     0.903250000000     0.842350000000     0.444766666667     0          
T        Si     0.961650000000     0.842450000000     0.392366666667     0          
T        Si     0.905200000000     0.759600000000     0.556400000000     0          
T        Si     0.961700000000     0.764150000000     0.612200000000     0          
T        Si     0.889500000000     0.790450000000     0.489000000000     0          
T        Si     0.938900000000     0.790300000000     0.349300000000     0          
O        O      0.899900000000     0.927550000000     0.479000000000     0          
O        O      0.939550000000     0.911900000000     0.427366666667     0          
O        O      0.875000000000     0.916450000000     0.416666666667     0          
O        O      0.948100000000     0.927950000000     0.361600000000     0          
O        O      0.895500000000     0.964750000000     0.530400000000     0          
O        O      0.911900000000     0.518550000000     0.533333333333     0          
O        O      0.938550000000     0.982300000000     0.577833333333     0          
O        O      0.875000000000     0.996200000000     0.583333333333     0          
O        O      0.949450000000     0.964000000000     0.642100000000     0          
O        O      0.958750000000     0.517850000000     0.626633333333     0          
O        O      0.850700000000     0.964600000000     0.479833333333     0          
T        Si     0.903250000000     0.907650000000     0.444766666667     0          
T        Si     0.961650000000     0.907550000000     0.392366666667     0          
T        Si     0.905200000000     0.990400000000     0.556400000000     0          
T        Si     0.961700000000     0.985850000000     0.612200000000     0          
T        Si     0.889500000000     0.959550000000     0.489000000000     0          
T        Si     0.938900000000     0.959700000000     0.349300000000     0          
O        O      0.600100000000     0.822450000000     0.479000000000     0          
O        O      0.560450000000     0.838100000000     0.427366666667     0          
O        O      0.625000000000     0.833550000000     0.416666666667     0          
O        O      0.551900000000     0.822050000000     0.361600000000     0          
O        O      0.604500000000     0.785250000000     0.530400000000     0          
O        O      0.588100000000     0.731450000000     0.533333333333     0          
O        O      0.561450000000     0.767700000000     0.577833333333     0          
O        O      0.625000000000     0.753800000000     0.583333333333     0          
O        O      0.550550000000     0.786000000000     0.642100000000     0          
O        O      0.541250000000     0.732150000000     0.626633333333     0          
O        O      0.649300000000     0.785400000000     0.479833333333     0          
T        Si     0.596750000000     0.842350000000     0.444766666667     0          
T        Si     0.538350000000     0.842450000000     0.392366666667     0          
T        Si     0.594800000000     0.759600000000     0.556400000000     0          
T        Si     0.538300000000     0.764150000000     0.612200000000     0          
T        Si     0.610500000000     0.790450000000     0.489000000000     0          
T        Si     0.561100000000     0.790300000000     0.349300000000     0          
O        O      0.899900000000     0.572450000000     0.521000000000     0          
O        O      0.939550000000     0.588100000000     0.572633333333     0          
O        O      0.875000000000     0.583550000000     0.583333333333     0          
O        O      0.948100000000     0.572050000000     0.638400000000     0          
O        O      0.895500000000     0.535250000000     0.469600000000     0          
O        O      0.911900000000     0.981450000000     0.466666666667     0          
O        O      0.938550000000     0.517700000000     0.422166666667     0          
O        O      0.875000000000     0.503800000000     0.416666666667     0          
O        O      0.949450000000     0.536000000000     0.357900000000     0          
O        O      0.958750000000     0.982150000000     0.373366666667     0          
O        O      0.850700000000     0.535400000000     0.520166666667     0          
T        Si     0.903250000000     0.592350000000     0.555233333333     0          
T        Si     0.961650000000     0.592450000000     0.607633333333     0          
T        Si     0.905200000000     0.509600000000     0.443600000000     0          
T        Si     0.961700000000     0.514150000000     0.387800000000     0          
T        Si     0.889500000000     0.540450000000     0.511000000000     0          
T        Si     0.938900000000     0.540300000000     0.650700000000     0          
O        O      0.600100000000     0.677550000000     0.521000000000     0          
O        O      0.560450000000     0.661900000000     0.572633333333     0          
O        O      0.625000000000     0.666450000000     0.583333333333     0          
O        O      0.551900000000     0.677950000000     0.638400000000     0          
O        O      0.604500000000     0.714750000000     0.469600000000     0          
O        O      0.588100000000     0.768550000000     0.466666666667     0          
O        O      0.561450000000     0.732300000000     0.422166666667     0          
O        O      0.625000000000     0.746200000000     0.416666666667     0          
O        O      0.550550000000     0.714000000000     0.357900000000     0          
O        O      0.541250000000     0.767850000000     0.373366666667     0          
O        O      0.649300000000     0.714600000000     0.520166666667     0          
T        Si     0.596750000000     0.657650000000     0.555233333333     0          
T        Si     0.538350000000     0.657550000000     0.607633333333     0          
T        Si     0.594800000000     0.740400000000     0.443600000000     0          
T        Si     0.538300000000     0.735850000000     0.387800000000     0          
T        Si     0.610500000000     0.709550000000     0.511000000000     0          
T        Si     0.561100000000     0.709700000000     0.650700000000     0          
O        O      0.850100000000     0.822450000000     0.354333333333     0          
O        O      0.810450000000     0.838100000000     0.405966666667     0          
O        O      0.851650000000     0.875000000000     0.377400000000     0          
O        O      0.801900000000     0.822050000000     0.471733333333     0          
O        O      0.750000000000     0.834800000000     0.432500000000     0          
O        O      0.790850000000     0.875000000000     0.453566666667     0          
O        O      0.854500000000     0.785250000000     0.636266666667     0          
O        O      0.838100000000     0.731450000000     0.633333333333     0          
O        O      0.811450000000     0.767700000000     0.588833333333     0          
O        O      0.800550000000     0.786000000000     0.524566666667     0          
O        O      0.791250000000     0.732150000000     0.540033333333     0          
O        O      0.750000000000     0.770750000000     0.564500000000     0          
O        O      0.899300000000     0.785400000000     0.353500000000     0          
T        Si     0.846750000000     0.842350000000     0.388566666667     0          
T        Si     0.788350000000     0.842450000000     0.440966666667     0          
T        Si     0.844800000000     0.759600000000     0.610266666667     0          
T        Si     0.788300000000     0.764150000000     0.554466666667     0          
T        Si     0.860500000000     0.790450000000     0.344333333333     0          
T        Si     0.811100000000     0.790300000000     0.484033333333     0          
O        O      0.649900000000     0.927550000000     0.354333333333     0          
O        O      0.689550000000     0.911900000000     0.405966666667     0          
O        O      0.648350000000     0.875000000000     0.377400000000     0          
O        O      0.698100000000     0.927950000000     0.471733333333     0          
O        O      0.750000000000     0.915200000000     0.432500000000     0          
O        O      0.709150000000     0.875000000000     0.453566666667     0          
O        O      0.645500000000     0.964750000000     0.636266666667     0          
O        O      0.661900000000     0.518550000000     0.633333333333     0          
O        O      0.688550000000     0.982300000000     0.588833333333     0          
O        O      0.699450000000     0.964000000000     0.524566666667     0          
O        O      0.708750000000     0.517850000000     0.540033333333     0          
O        O      0.750000000000     0.979250000000     0.564500000000     0          
O        O      0.600700000000     0.964600000000     0.353500000000     0          
T        Si     0.653250000000     0.907650000000     0.388566666667     0          
T        Si     0.711650000000     0.907550000000     0.440966666667     0          
T        Si     0.655200000000     0.990400000000     0.610266666667     0          
T        Si     0.711700000000     0.985850000000     0.554466666667     0          
T        Si     0.639500000000     0.959550000000     0.344333333333     0          
T        Si     0.688900000000     0.959700000000     0.484033333333     0          
O        O      0.850100000000     0.677550000000     0.645666666667     0          
O        O      0.810450000000     0.661900000000     0.594033333333     0          
O        O      0.851650000000     0.625000000000     0.622600000000     0          
O        O      0.801900000000     0.677950000000     0.528266666667     0          
O        O      0.750000000000     0.665200000000     0.567500000000     0          
O        O      0.790850000000     0.625000000000     0.546433333333     0          
O        O      0.854500000000     0.714750000000     0.363733333333     0          
O        O      0.838100000000     0.768550000000     0.366666666667     0          
O        O      0.811450000000     0.732300000000     0.411166666667     0          
O        O      0.800550000000     0.714000000000     0.475433333333     0          
O        O      0.791250000000     0.767850000000     0.459966666667     0          
O        O      0.750000000000     0.729250000000     0.435500000000     0          
O        O      0.899300000000     0.714600000000     0.646500000000     0          
T        Si     0.846750000000     0.657650000000     0.611433333333     0          
T        Si     0.788350000000     0.657550000000     0.559033333333     0          
T        Si     0.844800000000     0.740400000000     0.389733333333     0          
T        Si     0.788300000000     0.735850000000     0.445533333333     0          
T        Si     0.860500000000     0.709550000000     0.655666666667     0          
T        Si     0.811100000000     0.709700000000     0.515966666667     0          
O        O      0.649900000000     0.572450000000     0.645666666667     0          
O        O      0.689550000000     0.588100000000     0.594033333333     0          
O        O      0.648350000000     0.625000000000     0.622600000000     0          
O        O      0.698100000000     0.572050000000     0.528266666667     0          
O        O      0.750000000000     0.584800000000     0.567500000000     0          
O        O      0.709150000000     0.625000000000     0.546433333333     0          
O        O      0.645500000000     0.535250000000     0.363733333333     0          
O        O      0.661900000000     0.981450000000     0.366666666667     0          
O        O      0.688550000000     0.517700000000     0.411166666667     0          
O        O      0.699450000000     0.536000000000     0.475433333333     0          
O        O      0.708750000000     0.982150000000     0.459966666667     0          
O        O      0.750000000000     0.520750000000     0.435500000000     0          
O        O      0.600700000000     0.535400000000     0.646500000000     0          
T        Si     0.653250000000     0.592350000000     0.611433333333     0          
T        Si     0.711650000000     0.592450000000     0.559033333333     0          
T        Si     0.655200000000     0.509600000000     0.389733333333     0          
T        Si     0.711700000000     0.514150000000     0.445533333333     0          
T        Si     0.639500000000     0.540450000000     0.655666666667     0          
T        Si     0.688900000000     0.540300000000     0.515966666667     0          
O        O      0.649900000000     0.677550000000     0.645666666667     0          
O        O      0.689550000000     0.661900000000     0.594033333333     0          
O        O      0.698100000000     0.677950000000     0.528266666667     0          
O        O      0.645500000000     0.714750000000     0.363733333333     0          
O        O      0.661900000000     0.768550000000     0.366666666667     0          
O        O      0.688550000000     0.732300000000     0.411166666667     0          
O        O      0.699450000000     0.714000000000     0.475433333333     0          
O        O      0.708750000000     0.767850000000     0.459966666667     0          
O        O      0.600700000000     0.714600000000     0.646500000000     0          
T        Si     0.653250000000     0.657650000000     0.611433333333     0          
T        Si     0.711650000000     0.657550000000     0.559033333333     0          
T        Si     0.655200000000     0.740400000000     0.389733333333     0          
T        Si     0.711700000000     0.735850000000     0.445533333333     0          
T        Si     0.639500000000     0.709550000000     0.655666666667     0          
T        Si     0.688900000000     0.709700000000     0.515966666667     0          
O        O      0.850100000000     0.572450000000     0.645666666667     0          
O        O      0.810450000000     0.588100000000     0.594033333333     0          
O        O      0.801900000000     0.572050000000     0.528266666667     0          
O        O      0.854500000000     0.535250000000     0.363733333333     0          
O        O      0.838100000000     0.981450000000     0.366666666667     0          
O        O      0.811450000000     0.517700000000     0.411166666667     0          
O        O      0.800550000000     0.536000000000     0.475433333333     0          
O        O      0.791250000000     0.982150000000     0.459966666667     0          
O        O      0.899300000000     0.535400000000     0.646500000000     0          
T        Si     0.846750000000     0.592350000000     0.611433333333     0          
T        Si     0.788350000000     0.592450000000     0.559033333333     0          
T        Si     0.844800000000     0.509600000000     0.389733333333     0          
T        Si     0.788300000000     0.514150000000     0.445533333333     0          
T        Si     0.860500000000     0.540450000000     0.655666666667     0          
T        Si     0.811100000000     0.540300000000     0.515966666667     0          
O        O      0.649900000000     0.822450000000     0.354333333333     0          
O        O      0.689550000000     0.838100000000     0.405966666667     0          
O        O      0.698100000000     0.822050000000     0.471733333333     0          
O        O      0.645500000000     0.785250000000     0.636266666667     0          
O        O      0.661900000000     0.731450000000     0.633333333333     0          
O        O      0.688550000000     0.767700000000     0.588833333333     0          
O        O      0.699450000000     0.786000000000     0.524566666667     0          
O        O      0.708750000000     0.732150000000     0.540033333333     0          
O        O      0.600700000000     0.785400000000     0.353500000000     0          
T        Si     0.653250000000     0.842350000000     0.388566666667     0          
T        Si     0.711650000000     0.842450000000     0.440966666667     0          
T        Si     0.655200000000     0.759600000000     0.610266666667     0          
T        Si     0.711700000000     0.764150000000     0.554466666667     0          
T        Si     0.639500000000     0.790450000000     0.344333333333     0          
T        Si     0.688900000000     0.790300000000     0.484033333333     0          
O        O      0.850100000000     0.927550000000     0.354333333333     0          
O        O      0.810450000000     0.911900000000     0.405966666667     0          
O        O      0.801900000000     0.927950000000     0.471733333333     0          
O        O      0.854500000000     0.964750000000     0.636266666667     0          
O        O      0.838100000000     0.518550000000     0.633333333333     0          
O        O      0.811450000000     0.982300000000     0.588833333333     0          
O        O      0.800550000000     0.964000000000     0.524566666667     0          
O        O      0.791250000000     0.517850000000     0.540033333333     0          
O        O      0.899300000000     0.964600000000     0.353500000000     0          
T        Si     0.846750000000     0.907650000000     0.388566666667     0          
T        Si     0.788350000000     0.907550000000     0.440966666667     0          
T        Si     0.844800000000     0.990400000000     0.610266666667     0          
T        Si     0.788300000000     0.985850000000     0.554466666667     0          
T        Si     0.860500000000     0.959550000000     0.344333333333     0          
T        Si     0.811100000000     0.959700000000     0.484033333333     0          
O        O      0.600100000000     0.572450000000     0.854333333333     0          
O        O      0.560450000000     0.588100000000     0.905966666667     0          
O        O      0.601650000000     0.625000000000     0.877400000000     0          
O        O      0.625000000000     0.583550000000     0.916666666667     0          
O        O      0.551900000000     0.572050000000     0.971733333333     0          
O        O      0.500000000000     0.584800000000     0.932500000000     0          
O        O      0.540850000000     0.625000000000     0.953566666667     0          
O        O      0.604500000000     0.535250000000     0.802933333333     0          
O        O      0.588100000000     0.981450000000     0.800000000000     0          
O        O      0.561450000000     0.517700000000     0.755500000000     0          
O        O      0.625000000000     0.503800000000     0.750000000000     0          
O        O      0.550550000000     0.536000000000     0.691233333333     0          
O        O      0.541250000000     0.982150000000     0.706700000000     0          
O        O      0.500000000000     0.520750000000     0.731166666667     0          
O        O      0.649300000000     0.535400000000     0.853500000000     0          
T        Si     0.596750000000     0.592350000000     0.888566666667     0          
T        Si     0.538350000000     0.592450000000     0.940966666667     0          
T        Si     0.594800000000     0.509600000000     0.776933333333     0          
T        Si     0.538300000000     0.514150000000     0.721133333333     0          
T        Si     0.610500000000     0.540450000000     0.844333333333     0          
T        Si     0.561100000000     0.540300000000     0.984033333333     0          
O        O      0.899900000000     0.677550000000     0.854333333333     0          
O        O      0.939550000000     0.661900000000     0.905966666667     0          
O        O      0.898350000000     0.625000000000     0.877400000000     0          
O        O      0.875000000000     0.666450000000     0.916666666667     0          
O        O      0.948100000000     0.677950000000     0.971733333333     0          
O        O      0.500000000000     0.665200000000     0.932500000000     0          
O        O      0.959150000000     0.625000000000     0.953566666667     0          
O        O      0.895500000000     0.714750000000     0.802933333333     0          
O        O      0.911900000000     0.768550000000     0.800000000000     0          
O        O      0.938550000000     0.732300000000     0.755500000000     0          
O        O      0.875000000000     0.746200000000     0.750000000000     0          
O        O      0.949450000000     0.714000000000     0.691233333333     0          
O        O      0.958750000000     0.767850000000     0.706700000000     0          
O        O      0.500000000000     0.729250000000     0.731166666667     0          
O        O      0.850700000000     0.714600000000     0.853500000000     0          
T        Si     0.903250000000     0.657650000000     0.888566666667     0          
T        Si     0.961650000000     0.657550000000     0.940966666667     0          
T        Si     0.905200000000     0.740400000000     0.776933333333     0          
T        Si     0.961700000000     0.735850000000     0.721133333333     0          
T        Si     0.889500000000     0.709550000000     0.844333333333     0          
T        Si     0.938900000000     0.709700000000     0.984033333333     0          
O        O      0.600100000000     0.927550000000     0.812333333333     0          
O        O      0.560450000000     0.911900000000     0.760700000000     0          
O        O      0.601650000000     0.875000000000     0.789266666667     0          
O        O      0.625000000000     0.916450000000     0.750000000000     0          
O        O      0.551900000000     0.927950000000     0.694933333333     0          
O        O      0.500000000000     0.915200000000     0.734166666667     0          
O        O      0.540850000000     0.875000000000     0.713100000000     0          
O        O      0.604500000000     0.964750000000     0.863733333333     0          
O        O      0.588100000000     0.518550000000     0.866666666667     0          
O        O      0.561450000000     0.982300000000     0.911166666667     0          
O        O      0.625000000000     0.996200000000     0.916666666667     0          
O        O      0.550550000000     0.964000000000     0.975433333333     0          
O        O      0.541250000000     0.517850000000     0.959966666667     0          
O        O      0.500000000000     0.979250000000     0.935500000000     0          
O        O      0.649300000000     0.964600000000     0.813166666667     0          
T        Si     0.596750000000     0.907650000000     0.778100000000     0          
T        Si     0.538350000000     0.907550000000     0.725700000000     0          
T        Si     0.594800000000     0.990400000000     0.889733333333     0          
T        Si     0.538300000000     0.985850000000     0.945533333333     0          
T        Si     0.610500000000     0.959550000000     0.822333333333     0          
T        Si     0.561100000000     0.959700000000     0.682633333333     0          
O        O      0.899900000000     0.822450000000     0.812333333333     0          
O        O      0.939550000000     0.838100000000     0.760700000000     0          
O        O      0.898350000000     0.875000000000     0.789266666667     0          
O        O      0.875000000000     0.833550000000     0.750000000000     0          
O        O      0.948100000000     0.822050000000     0.694933333333     0          
O        O      0.500000000000     0.834800000000     0.734166666667     0          
O        O      0.959150000000     0.875000000000     0.713100000000     0          
O        O      0.895500000000     0.785250000000     0.863733333333     0          
O        O      0.911900000000     0.731450000000     0.866666666667     0          
O        O      0.938550000000     0.767700000000     0.911166666667     0          
O        O      0.875000000000     0.753800000000     0.916666666667     0          
O        O      0.949450000000     0.786000000000     0.975433333333     0          
O        O      0.958750000000     0.732150000000     0.959966666667     0          
O        O      0.500000000000     0.770750000000     0.935500000000     0          
O        O      0.850700000000     0.785400000000     0.813166666667     0          
T        Si     0.903250000000     0.842350000000     0.778100000000     0          
T        Si     0.961650000000     0.842450000000     0.725700000000     0          
T        Si     0.905200000000     0.759600000000     0.889733333333     0          
T        Si     0.961700000000     0.764150000000     0.945533333333     0          
T        Si     0.889500000000     0.790450000000     0.822333333333     0          
T        Si     0.938900000000     0.790300000000     0.682633333333     0          
O        O      0.899900000000     0.927550000000     0.812333333333     0          
O        O      0.939550000000     0.911900000000     0.760700000000     0          
O        O      0.875000000000     0.916450000000     0.750000000000     0          
O        O      0.948100000000     0.927950000000     0.694933333333     0          
O        O      0.895500000000     0.964750000000     0.863733333333     0          
O        O      0.911900000000     0.518550000000     0.866666666667     0          
O        O      0.938550000000     0.982300000000     0.911166666667     0          
O        O      0.875000000000     0.996200000000     0.916666666667     0          
O        O      0.949450000000     0.964000000000     0.975433333333     0          
O        O      0.958750000000     0.517850000000     0.959966666667     0          
O        O      0.850700000000     0.964600000000     0.813166666667     0          
T        Si     0.903250000000     0.907650000000     0.778100000000     0          
T        Si     0.961650000000     0.907550000000     0.725700000000     0          
T        Si     0.905200000000     0.990400000000     0.889733333333     0          
T        Si     0.961700000000     0.985850000000     0.945533333333     0          
T        Si     0.889500000000     0.959550000000     0.822333333333     0          
T        Si     0.938900000000     0.959700000000     0.682633333333     0          
O        O      0.600100000000     0.822450000000     0.812333333333     0          
O        O      0.560450000000     0.838100000000     0.760700000000     0          
O        O      0.625000000000     0.833550000000     0.750000000000     0          
O        O      0.551900000000     0.822050000000     0.694933333333     0          
O        O      0.604500000000     0.785250000000     0.863733333333     0          
O        O      0.588100000000     0.731450000000     0.866666666667     0          
O        O      0.561450000000     0.767700000000     0.911166666667     0          
O        O      0.625000000000     0.753800000000     0.916666666667     0          
O        O      0.550550000000     0.786000000000     0.975433333333     0          
O        O      0.541250000000     0.732150000000     0.959966666667     0          
O        O      0.649300000000     0.785400000000     0.813166666667     0          
T        Si     0.596750000000     0.842350000000     0.778100000000     0          
T        Si     0.538350000000     0.842450000000     0.725700000000     0          
T        Si     0.594800000000     0.759600000000     0.889733333333     0          
T        Si     0.538300000000     0.764150000000     0.945533333333     0          
T        Si     0.610500000000     0.790450000000     0.822333333333     0          
T        Si     0.561100000000     0.790300000000     0.682633333333     0          
O        O      0.899900000000     0.572450000000     0.854333333333     0          
O        O      0.939550000000     0.588100000000     0.905966666667     0          
O        O      0.875000000000     0.583550000000     0.916666666667     0          
O        O      0.948100000000     0.572050000000     0.971733333333     0          
O        O      0.895500000000     0.535250000000     0.802933333333     0          
O        O      0.911900000000     0.981450000000     0.800000000000     0          
O        O      0.938550000000     0.517700000000     0.755500000000     0          
O        O      0.875000000000     0.503800000000     0.750000000000     0          
O        O      0.949450000000     0.536000000000     0.691233333333     0          
O        O      0.958750000000     0.982150000000     0.706700000000     0          
O        O      0.850700000000     0.535400000000     0.853500000000     0          
T        Si     0.903250000000     0.592350000000     0.888566666667     0          
T        Si     0.961650000000     0.592450000000     0.940966666667     0          
T        Si     0.905200000000     0.509600000000     0.776933333333     0          
T        Si     0.961700000000     0.514150000000     0.721133333333     0          
T        Si     0.889500000000     0.540450000000     0.844333333333     0          
T        Si     0.938900000000     0.540300000000     0.984033333333     0          
O        O      0.600100000000     0.677550000000     0.854333333333     0          
O        O      0.560450000000     0.661900000000     0.905966666667     0          
O        O      0.625000000000     0.666450000000     0.916666666667     0          
O        O      0.551900000000     0.677950000000     0.971733333333     0          
O        O      0.604500000000     0.714750000000     0.802933333333     0          
O        O      0.588100000000     0.768550000000     0.800000000000     0          
O        O      0.561450000000     0.732300000000     0.755500000000     0          
O        O      0.625000000000     0.746200000000     0.750000000000     0          
O        O      0.550550000000     0.714000000000     0.691233333333     0          
O        O      0.541250000000     0.767850000000     0.706700000000     0          
O        O      0.649300000000     0.714600000000     0.853500000000     0          
T        Si     0.596750000000     0.657650000000     0.888566666667     0          
T        Si     0.538350000000     0.657550000000     0.940966666667     0          
T        Si     0.594800000000     0.740400000000     0.776933333333     0          
T        Si     0.538300000000     0.735850000000     0.721133333333     0          
T        Si     0.610500000000     0.709550000000     0.844333333333     0          
T        Si     0.561100000000     0.709700000000     0.984033333333     0          
O        O      0.850100000000     0.822450000000     0.687666666667     0          
O        O      0.810450000000     0.838100000000     0.739300000000     0          
O        O      0.851650000000     0.875000000000     0.710733333333     0          
O        O      0.801900000000     0.822050000000     0.805066666667     0          
O        O      0.750000000000     0.834800000000     0.765833333333     0          
O        O      0.790850000000     0.875000000000     0.786900000000     0          
O        O      0.854500000000     0.785250000000     0.969600000000     0          
O        O      0.838100000000     0.731450000000     0.966666666667     0          
O        O      0.811450000000     0.767700000000     0.922166666667     0          
O        O      0.800550000000     0.786000000000     0.857900000000     0          
O        O      0.791250000000     0.732150000000     0.873366666667     0          
O        O      0.750000000000     0.770750000000     0.897833333333     0          
O        O      0.899300000000     0.785400000000     0.686833333333     0          
T        Si     0.846750000000     0.842350000000     0.721900000000     0          
T        Si     0.788350000000     0.842450000000     0.774300000000     0          
T        Si     0.844800000000     0.759600000000     0.943600000000     0          
T        Si     0.788300000000     0.764150000000     0.887800000000     0          
T        Si     0.860500000000     0.790450000000     0.677666666667     0          
T        Si     0.811100000000     0.790300000000     0.817366666667     0          
O        O      0.649900000000     0.927550000000     0.687666666667     0          
O        O      0.689550000000     0.911900000000     0.739300000000     0          
O        O      0.648350000000     0.875000000000     0.710733333333     0          
O        O      0.698100000000     0.927950000000     0.805066666667     0          
O        O      0.750000000000     0.915200000000     0.765833333333     0          
O        O      0.709150000000     0.875000000000     0.786900000000     0          
O        O      0.645500000000     0.964750000000     0.969600000000     0          
O        O      0.661900000000     0.518550000000     0.966666666667     0          
O        O      0.688550000000     0.982300000000     0.922166666667     0          
O        O      0.699450000000     0.964000000000     0.857900000000     0          
O        O      0.708750000000     0.517850000000     0.873366666667     0          
O        O      0.750000000000     0.979250000000     0.897833333333     0          
O        O      0.600700000000     0.964600000000     0.686833333333     0          
T        Si     0.653250000000     0.907650000000     0.721900000000     0          
T        Si     0.711650000000     0.907550000000     0.774300000000     0          
T        Si     0.655200000000     0.990400000000     0.943600000000     0          
T        Si     0.711700000000     0.985850000000     0.887800000000     0          
T        Si     0.639500000000     0.959550000000     0.677666666667     0          
T        Si     0.688900000000     0.959700000000     0.817366666667     0          
O        O      0.850100000000     0.677550000000     0.979000000000     0          
O        O      0.810450000000     0.661900000000     0.927366666667     0          
O        O      0.851650000000     0.625000000000     0.955933333333     0          
O        O      0.801900000000     0.677950000000     0.861600000000     0          
O        O      0.750000000000     0.665200000000     0.900833333333     0          
O        O      0.790850000000     0.625000000000     0.879766666667     0          
O        O      0.854500000000     0.714750000000     0.697066666667     0          
O        O      0.838100000000     0.768550000000     0.700000000000     0          
O        O      0.811450000000     0.732300000000     0.744500000000     0          
O        O      0.800550000000     0.714000000000     0.808766666667     0          
O        O      0.791250000000     0.767850000000     0.793300000000     0          
O        O      0.750000000000     0.729250000000     0.768833333333     0          
O        O      0.899300000000     0.714600000000     0.979833333333     0          
T        Si     0.846750000000     0.657650000000     0.944766666667     0          
T        Si     0.788350000000     0.657550000000     0.892366666667     0          
T        Si     0.844800000000     0.740400000000     0.723066666667     0          
T        Si     0.788300000000     0.735850000000     0.778866666667     0          
T        Si     0.860500000000     0.709550000000     0.989000000000     0          
T        Si     0.811100000000     0.709700000000     0.849300000000     0          
O        O      0.649900000000     0.572450000000     0.979000000000     0          
O        O      0.689550000000     0.588100000000     0.927366666667     0          
O        O      0.648350000000     0.625000000000     0.955933333333     0          
O        O      0.698100000000     0.572050000000     0.861600000000     0          
O        O      0.750000000000     0.584800000000     0.900833333333     0          
O        O      0.709150000000     0.625000000000     0.879766666667     0          
O        O      0.645500000000     0.535250000000     0.697066666667     0          
O        O      0.661900000000     0.981450000000     0.700000000000     0          
O        O      0.688550000000     0.517700000000     0.744500000000     0          
O        O      0.699450000000     0.536000000000     0.808766666667     0          
O        O      0.708750000000     0.982150000000     0.793300000000     0          
O        O      0.750000000000     0.520750000000     0.768833333333     0          
O        O      0.600700000000     0.535400000000     0.979833333333     0          
T        Si     0.653250000000     0.592350000000     0.944766666667     0          
T        Si     0.711650000000     0.592450000000     0.892366666667     0          
T        Si     0.655200000000     0.509600000000     0.723066666667     0          
T        Si     0.711700000000     0.514150000000     0.778866666667     0          
T        Si     0.639500000000     0.540450000000     0.989000000000     0          
T        Si     0.688900000000     0.540300000000     0.849300000000     0          
O        O      0.649900000000     0.677550000000     0.979000000000     0          
O        O      0.689550000000     0.661900000000     0.927366666667     0          
O        O      0.698100000000     0.677950000000     0.861600000000     0          
O        O      0.645500000000     0.714750000000     0.697066666667     0          
O        O      0.661900000000     0.768550000000     0.700000000000     0          
O        O      0.688550000000     0.732300000000     0.744500000000     0          
O        O      0.699450000000     0.714000000000     0.808766666667     0          
O        O      0.708750000000     0.767850000000     0.793300000000     0          
O        O      0.600700000000     0.714600000000     0.979833333333     0          
T        Si     0.653250000000     0.657650000000     0.944766666667     0          
T        Si     0.711650000000     0.657550000000     0.892366666667     0          
T        Si     0.655200000000     0.740400000000     0.723066666667     0          
T        Si     0.711700000000     0.735850000000     0.778866666667     0          
T        Si     0.639500000000     0.709550000000     0.989000000000     0          
T        Si     0.688900000000     0.709700000000     0.849300000000     0          
O        O      0.850100000000     0.572450000000     0.979000000000     0          
O        O      0.810450000000     0.588100000000     0.927366666667     0          
O        O      0.801900000000     0.572050000000     0.861600000000     0          
O        O      0.854500000000     0.535250000000     0.697066666667     0          
O        O      0.838100000000     0.981450000000     0.700000000000     0          
O        O      0.811450000000     0.517700000000     0.744500000000     0          
O        O      0.800550000000     0.536000000000     0.808766666667     0          
O        O      0.791250000000     0.982150000000     0.793300000000     0          
O        O      0.899300000000     0.535400000000     0.979833333333     0          
T        Si     0.846750000000     0.592350000000     0.944766666667     0          
T        Si     0.788350000000     0.592450000000     0.892366666667     0          
T        Si     0.844800000000     0.509600000000     0.723066666667     0          
T        Si     0.788300000000     0.514150000000     0.778866666667     0          
T        Si     0.860500000000     0.540450000000     0.989000000000     0          
T        Si     0.811100000000     0.540300000000     0.849300000000     0          
O        O      0.649900000000     0.822450000000     0.687666666667     0          
O        O      0.689550000000     0.838100000000     0.739300000000     0          
O        O      0.698100000000     0.822050000000     0.805066666667     0          
O        O      0.645500000000     0.785250000000     0.969600000000     0          
O        O      0.661900000000     0.731450000000     0.966666666667     0          
O        O      0.688550000000     0.767700000000     0.922166666667     0          
O        O      0.699450000000     0.786000000000     0.857900000000     0          
O        O      0.708750000000     0.732150000000     0.873366666667     0          
O        O      0.600700000000     0.785400000000     0.686833333333     0          
T        Si     0.653250000000     0.842350000000     0.721900000000     0          
T        Si     0.711650000000     0.842450000000     0.774300000000     0          
T        Si     0.655200000000     0.759600000000     0.943600000000     0          
T        Si     0.711700000000     0.764150000000     0.887800000000     0          
T        Si     0.639500000000     0.790450000000     0.677666666667     0          
T        Si     0.688900000000     0.790300000000     0.817366666667     0          
O        O      0.850100000000     0.927550000000     0.687666666667     0          
O        O      0.810450000000     0.911900000000     0.739300000000     0          
O        O      0.801900000000     0.927950000000     0.805066666667     0          
O        O      0.854500000000     0.964750000000     0.969600000000     0          
O        O      0.838100000000     0.518550000000     0.966666666667     0          
O        O      0.811450000000     0.982300000000     0.922166666667     0          
O        O      0.800550000000     0.964000000000     0.857900000000     0          
O        O      0.791250000000     0.517850000000     0.873366666667     0          
O        O      0.899300000000     0.964600000000     0.686833333333     0          
T        Si     0.846750000000     0.907650000000     0.721900000000     0          
T        Si     0.788350000000     0.907550000000     0.774300000000     0          
T        Si     0.844800000000     0.990400000000     0.943600000000     0          
T        Si     0.788300000000     0.985850000000     0.887800000000     0          
T        Si     0.860500000000     0.959550000000     0.677666666667     0          
T        Si     0.811100000000     0.959700000000     0.817366666667     0          


