data_zeolite

_audit_creation_method RASPA-1.0
_audit_creation_date 2021-6-7
_audit_author_name ''

_cell_length_a    35.0012
_cell_length_b    28.9437
_cell_length_c    30.8157
_cell_angle_alpha 105.72
_cell_angle_beta  100.19
_cell_angle_gamma 97.02
_cell_volume      29095.7

_symmetry_cell_setting          triclinic
_symmetry_space_group_name_Hall 'P 1'
_symmetry_space_group_name_H-M  'P 1'
_symmetry_Int_Tables_number     1

_symmetry_equiv_pos_as_xyz 'x,y,z'

loop_
_atom_site_label
_atom_site_type_symbol
_atom_site_fract_x
_atom_site_fract_y
_atom_site_fract_z
_atom_site_charge
T        Si     0.136550000000     0.102466666667     0.061000000000     0          
T        Si     0.138575000000     0.132833333333     0.267400000000     0          
T        Si     0.143000000000     0.022000000000     0.107766666667     0          
T        Si     0.076550000000     0.283800000000     0.119800000000     0          
T        Si     0.082050000000     0.061200000000     0.295566666667     0          
T        Si     0.248875000000     0.240666666667     0.047533333333     0          
T        Si     0.203175000000     0.138666666667     0.020000000000     0          
O        O      0.138750000000     0.073733333333     0.099166666667     0          
O        O      0.172200000000     0.150566666667     0.314366666667     0          
O        O      0.099925000000     0.325533333333     0.103866666667     0          
O        O      0.099925000000     0.103166666667     0.275766666667     0          
O        O      0.105650000000     0.069800000000     0.014400000000     0          
O        O      0.030725000000     0.271866666667     0.093900000000     0          
O        O      0.122425000000     0.153533333333     0.080433333333     0          
O        O      0.179575000000     0.113000000000     0.050133333333     0          
O        O      0.036150000000     0.062900000000     0.294933333333     0          
O        O      0.169750000000     0.030933333333     0.158533333333     0          
O        O      0.163725000000     0.324633333333     0.069633333333     0          
O        O      0.095400000000     0.235166666667     0.106500000000     0          
O        O      0.230850000000     0.189033333333     0.052833333333     0          
O        O      0.229900000000     0.102600000000     0.328900000000     0          
T        Si     0.113450000000     0.230866666667     0.272333333333     0          
T        Si     0.111425000000     0.200500000000     0.065933333333     0          
T        Si     0.107000000000     0.311333333333     0.225566666667     0          
T        Si     0.173450000000     0.049533333333     0.213533333333     0          
T        Si     0.167950000000     0.272133333333     0.037766666667     0          
T        Si     0.001125000000     0.092666666667     0.285800000000     0          
T        Si     0.046825000000     0.194666666667     0.313333333333     0          
O        O      0.111250000000     0.259600000000     0.234166666667     0          
O        O      0.077800000000     0.182766666667     0.018966666667     0          
O        O      0.150075000000     0.007800000000     0.229466666667     0          
O        O      0.150075000000     0.230166666667     0.057566666667     0          
O        O      0.144350000000     0.263533333333     0.318933333333     0          
O        O      0.219275000000     0.061466666667     0.239433333333     0          
O        O      0.127575000000     0.179800000000     0.252900000000     0          
O        O      0.070425000000     0.220333333333     0.283200000000     0          
O        O      0.213850000000     0.270433333333     0.038400000000     0          
O        O      0.080250000000     0.302400000000     0.174800000000     0          
O        O      0.086275000000     0.008700000000     0.263700000000     0          
O        O      0.154600000000     0.098166666667     0.226833333333     0          
O        O      0.019150000000     0.144300000000     0.280500000000     0          
O        O      0.020100000000     0.230733333333     0.004433333333     0          
T        Si     0.136550000000     0.102466666667     0.394333333333     0          
T        Si     0.138575000000     0.132833333333     0.600733333333     0          
T        Si     0.143000000000     0.022000000000     0.441100000000     0          
T        Si     0.076550000000     0.283800000000     0.453133333333     0          
T        Si     0.082050000000     0.061200000000     0.628900000000     0          
T        Si     0.248875000000     0.240666666667     0.380866666667     0          
T        Si     0.203175000000     0.138666666667     0.353333333333     0          
O        O      0.138750000000     0.073733333333     0.432500000000     0          
O        O      0.172200000000     0.150566666667     0.647700000000     0          
O        O      0.099925000000     0.325533333333     0.437200000000     0          
O        O      0.099925000000     0.103166666667     0.609100000000     0          
O        O      0.105650000000     0.069800000000     0.347733333333     0          
O        O      0.030725000000     0.271866666667     0.427233333333     0          
O        O      0.122425000000     0.153533333333     0.413766666667     0          
O        O      0.179575000000     0.113000000000     0.383466666667     0          
O        O      0.036150000000     0.062900000000     0.628266666667     0          
O        O      0.169750000000     0.030933333333     0.491866666667     0          
O        O      0.163725000000     0.324633333333     0.402966666667     0          
O        O      0.095400000000     0.235166666667     0.439833333333     0          
O        O      0.230850000000     0.189033333333     0.386166666667     0          
O        O      0.229900000000     0.102600000000     0.662233333333     0          
T        Si     0.113450000000     0.230866666667     0.605666666667     0          
T        Si     0.111425000000     0.200500000000     0.399266666667     0          
T        Si     0.107000000000     0.311333333333     0.558900000000     0          
T        Si     0.173450000000     0.049533333333     0.546866666667     0          
T        Si     0.167950000000     0.272133333333     0.371100000000     0          
T        Si     0.001125000000     0.092666666667     0.619133333333     0          
T        Si     0.046825000000     0.194666666667     0.646666666667     0          
O        O      0.111250000000     0.259600000000     0.567500000000     0          
O        O      0.077800000000     0.182766666667     0.352300000000     0          
O        O      0.150075000000     0.007800000000     0.562800000000     0          
O        O      0.150075000000     0.230166666667     0.390900000000     0          
O        O      0.144350000000     0.263533333333     0.652266666667     0          
O        O      0.219275000000     0.061466666667     0.572766666667     0          
O        O      0.127575000000     0.179800000000     0.586233333333     0          
O        O      0.070425000000     0.220333333333     0.616533333333     0          
O        O      0.213850000000     0.270433333333     0.371733333333     0          
O        O      0.080250000000     0.302400000000     0.508133333333     0          
O        O      0.086275000000     0.008700000000     0.597033333333     0          
O        O      0.154600000000     0.098166666667     0.560166666667     0          
O        O      0.019150000000     0.144300000000     0.613833333333     0          
O        O      0.020100000000     0.230733333333     0.337766666667     0          
T        Si     0.136550000000     0.102466666667     0.727666666667     0          
T        Si     0.138575000000     0.132833333333     0.934066666667     0          
T        Si     0.143000000000     0.022000000000     0.774433333333     0          
T        Si     0.076550000000     0.283800000000     0.786466666667     0          
T        Si     0.082050000000     0.061200000000     0.962233333333     0          
T        Si     0.248875000000     0.240666666667     0.714200000000     0          
T        Si     0.203175000000     0.138666666667     0.686666666667     0          
O        O      0.138750000000     0.073733333333     0.765833333333     0          
O        O      0.172200000000     0.150566666667     0.981033333333     0          
O        O      0.099925000000     0.325533333333     0.770533333333     0          
O        O      0.099925000000     0.103166666667     0.942433333333     0          
O        O      0.105650000000     0.069800000000     0.681066666667     0          
O        O      0.030725000000     0.271866666667     0.760566666667     0          
O        O      0.122425000000     0.153533333333     0.747100000000     0          
O        O      0.179575000000     0.113000000000     0.716800000000     0          
O        O      0.036150000000     0.062900000000     0.961600000000     0          
O        O      0.169750000000     0.030933333333     0.825200000000     0          
O        O      0.163725000000     0.324633333333     0.736300000000     0          
O        O      0.095400000000     0.235166666667     0.773166666667     0          
O        O      0.230850000000     0.189033333333     0.719500000000     0          
O        O      0.229900000000     0.102600000000     0.995566666667     0          
T        Si     0.113450000000     0.230866666667     0.939000000000     0          
T        Si     0.111425000000     0.200500000000     0.732600000000     0          
T        Si     0.107000000000     0.311333333333     0.892233333333     0          
T        Si     0.173450000000     0.049533333333     0.880200000000     0          
T        Si     0.167950000000     0.272133333333     0.704433333333     0          
T        Si     0.001125000000     0.092666666667     0.952466666667     0          
T        Si     0.046825000000     0.194666666667     0.980000000000     0          
O        O      0.111250000000     0.259600000000     0.900833333333     0          
O        O      0.077800000000     0.182766666667     0.685633333333     0          
O        O      0.150075000000     0.007800000000     0.896133333333     0          
O        O      0.150075000000     0.230166666667     0.724233333333     0          
O        O      0.144350000000     0.263533333333     0.985600000000     0          
O        O      0.219275000000     0.061466666667     0.906100000000     0          
O        O      0.127575000000     0.179800000000     0.919566666667     0          
O        O      0.070425000000     0.220333333333     0.949866666667     0          
O        O      0.213850000000     0.270433333333     0.705066666667     0          
O        O      0.080250000000     0.302400000000     0.841466666667     0          
O        O      0.086275000000     0.008700000000     0.930366666667     0          
O        O      0.154600000000     0.098166666667     0.893500000000     0          
O        O      0.019150000000     0.144300000000     0.947166666667     0          
O        O      0.020100000000     0.230733333333     0.671100000000     0          
T        Si     0.136550000000     0.435800000000     0.061000000000     0          
T        Si     0.138575000000     0.466166666667     0.267400000000     0          
T        Si     0.143000000000     0.355333333333     0.107766666667     0          
T        Si     0.076550000000     0.617133333333     0.119800000000     0          
T        Si     0.082050000000     0.394533333333     0.295566666667     0          
T        Si     0.248875000000     0.574000000000     0.047533333333     0          
T        Si     0.203175000000     0.472000000000     0.020000000000     0          
O        O      0.138750000000     0.407066666667     0.099166666667     0          
O        O      0.172200000000     0.483900000000     0.314366666667     0          
O        O      0.099925000000     0.658866666667     0.103866666667     0          
O        O      0.099925000000     0.436500000000     0.275766666667     0          
O        O      0.105650000000     0.403133333333     0.014400000000     0          
O        O      0.030725000000     0.605200000000     0.093900000000     0          
O        O      0.122425000000     0.486866666667     0.080433333333     0          
O        O      0.179575000000     0.446333333333     0.050133333333     0          
O        O      0.036150000000     0.396233333333     0.294933333333     0          
O        O      0.169750000000     0.364266666667     0.158533333333     0          
O        O      0.163725000000     0.657966666667     0.069633333333     0          
O        O      0.095400000000     0.568500000000     0.106500000000     0          
O        O      0.230850000000     0.522366666667     0.052833333333     0          
O        O      0.229900000000     0.435933333333     0.328900000000     0          
T        Si     0.113450000000     0.564200000000     0.272333333333     0          
T        Si     0.111425000000     0.533833333333     0.065933333333     0          
T        Si     0.107000000000     0.644666666667     0.225566666667     0          
T        Si     0.173450000000     0.382866666667     0.213533333333     0          
T        Si     0.167950000000     0.605466666667     0.037766666667     0          
T        Si     0.001125000000     0.426000000000     0.285800000000     0          
T        Si     0.046825000000     0.528000000000     0.313333333333     0          
O        O      0.111250000000     0.592933333333     0.234166666667     0          
O        O      0.077800000000     0.516100000000     0.018966666667     0          
O        O      0.150075000000     0.341133333333     0.229466666667     0          
O        O      0.150075000000     0.563500000000     0.057566666667     0          
O        O      0.144350000000     0.596866666667     0.318933333333     0          
O        O      0.219275000000     0.394800000000     0.239433333333     0          
O        O      0.127575000000     0.513133333333     0.252900000000     0          
O        O      0.070425000000     0.553666666667     0.283200000000     0          
O        O      0.213850000000     0.603766666667     0.038400000000     0          
O        O      0.080250000000     0.635733333333     0.174800000000     0          
O        O      0.086275000000     0.342033333333     0.263700000000     0          
O        O      0.154600000000     0.431500000000     0.226833333333     0          
O        O      0.019150000000     0.477633333333     0.280500000000     0          
O        O      0.020100000000     0.564066666667     0.004433333333     0          
T        Si     0.136550000000     0.435800000000     0.394333333333     0          
T        Si     0.138575000000     0.466166666667     0.600733333333     0          
T        Si     0.143000000000     0.355333333333     0.441100000000     0          
T        Si     0.076550000000     0.617133333333     0.453133333333     0          
T        Si     0.082050000000     0.394533333333     0.628900000000     0          
T        Si     0.248875000000     0.574000000000     0.380866666667     0          
T        Si     0.203175000000     0.472000000000     0.353333333333     0          
O        O      0.138750000000     0.407066666667     0.432500000000     0          
O        O      0.172200000000     0.483900000000     0.647700000000     0          
O        O      0.099925000000     0.658866666667     0.437200000000     0          
O        O      0.099925000000     0.436500000000     0.609100000000     0          
O        O      0.105650000000     0.403133333333     0.347733333333     0          
O        O      0.030725000000     0.605200000000     0.427233333333     0          
O        O      0.122425000000     0.486866666667     0.413766666667     0          
O        O      0.179575000000     0.446333333333     0.383466666667     0          
O        O      0.036150000000     0.396233333333     0.628266666667     0          
O        O      0.169750000000     0.364266666667     0.491866666667     0          
O        O      0.163725000000     0.657966666667     0.402966666667     0          
O        O      0.095400000000     0.568500000000     0.439833333333     0          
O        O      0.230850000000     0.522366666667     0.386166666667     0          
O        O      0.229900000000     0.435933333333     0.662233333333     0          
T        Si     0.113450000000     0.564200000000     0.605666666667     0          
T        Si     0.111425000000     0.533833333333     0.399266666667     0          
T        Si     0.107000000000     0.644666666667     0.558900000000     0          
T        Si     0.173450000000     0.382866666667     0.546866666667     0          
T        Si     0.167950000000     0.605466666667     0.371100000000     0          
T        Si     0.001125000000     0.426000000000     0.619133333333     0          
T        Si     0.046825000000     0.528000000000     0.646666666667     0          
O        O      0.111250000000     0.592933333333     0.567500000000     0          
O        O      0.077800000000     0.516100000000     0.352300000000     0          
O        O      0.150075000000     0.341133333333     0.562800000000     0          
O        O      0.150075000000     0.563500000000     0.390900000000     0          
O        O      0.144350000000     0.596866666667     0.652266666667     0          
O        O      0.219275000000     0.394800000000     0.572766666667     0          
O        O      0.127575000000     0.513133333333     0.586233333333     0          
O        O      0.070425000000     0.553666666667     0.616533333333     0          
O        O      0.213850000000     0.603766666667     0.371733333333     0          
O        O      0.080250000000     0.635733333333     0.508133333333     0          
O        O      0.086275000000     0.342033333333     0.597033333333     0          
O        O      0.154600000000     0.431500000000     0.560166666667     0          
O        O      0.019150000000     0.477633333333     0.613833333333     0          
O        O      0.020100000000     0.564066666667     0.337766666667     0          
T        Si     0.136550000000     0.435800000000     0.727666666667     0          
T        Si     0.138575000000     0.466166666667     0.934066666667     0          
T        Si     0.143000000000     0.355333333333     0.774433333333     0          
T        Si     0.076550000000     0.617133333333     0.786466666667     0          
T        Si     0.082050000000     0.394533333333     0.962233333333     0          
T        Si     0.248875000000     0.574000000000     0.714200000000     0          
T        Si     0.203175000000     0.472000000000     0.686666666667     0          
O        O      0.138750000000     0.407066666667     0.765833333333     0          
O        O      0.172200000000     0.483900000000     0.981033333333     0          
O        O      0.099925000000     0.658866666667     0.770533333333     0          
O        O      0.099925000000     0.436500000000     0.942433333333     0          
O        O      0.105650000000     0.403133333333     0.681066666667     0          
O        O      0.030725000000     0.605200000000     0.760566666667     0          
O        O      0.122425000000     0.486866666667     0.747100000000     0          
O        O      0.179575000000     0.446333333333     0.716800000000     0          
O        O      0.036150000000     0.396233333333     0.961600000000     0          
O        O      0.169750000000     0.364266666667     0.825200000000     0          
O        O      0.163725000000     0.657966666667     0.736300000000     0          
O        O      0.095400000000     0.568500000000     0.773166666667     0          
O        O      0.230850000000     0.522366666667     0.719500000000     0          
O        O      0.229900000000     0.435933333333     0.995566666667     0          
T        Si     0.113450000000     0.564200000000     0.939000000000     0          
T        Si     0.111425000000     0.533833333333     0.732600000000     0          
T        Si     0.107000000000     0.644666666667     0.892233333333     0          
T        Si     0.173450000000     0.382866666667     0.880200000000     0          
T        Si     0.167950000000     0.605466666667     0.704433333333     0          
T        Si     0.001125000000     0.426000000000     0.952466666667     0          
T        Si     0.046825000000     0.528000000000     0.980000000000     0          
O        O      0.111250000000     0.592933333333     0.900833333333     0          
O        O      0.077800000000     0.516100000000     0.685633333333     0          
O        O      0.150075000000     0.341133333333     0.896133333333     0          
O        O      0.150075000000     0.563500000000     0.724233333333     0          
O        O      0.144350000000     0.596866666667     0.985600000000     0          
O        O      0.219275000000     0.394800000000     0.906100000000     0          
O        O      0.127575000000     0.513133333333     0.919566666667     0          
O        O      0.070425000000     0.553666666667     0.949866666667     0          
O        O      0.213850000000     0.603766666667     0.705066666667     0          
O        O      0.080250000000     0.635733333333     0.841466666667     0          
O        O      0.086275000000     0.342033333333     0.930366666667     0          
O        O      0.154600000000     0.431500000000     0.893500000000     0          
O        O      0.019150000000     0.477633333333     0.947166666667     0          
O        O      0.020100000000     0.564066666667     0.671100000000     0          
T        Si     0.136550000000     0.769133333333     0.061000000000     0          
T        Si     0.138575000000     0.799500000000     0.267400000000     0          
T        Si     0.143000000000     0.688666666667     0.107766666667     0          
T        Si     0.076550000000     0.950466666667     0.119800000000     0          
T        Si     0.082050000000     0.727866666667     0.295566666667     0          
T        Si     0.248875000000     0.907333333333     0.047533333333     0          
T        Si     0.203175000000     0.805333333333     0.020000000000     0          
O        O      0.138750000000     0.740400000000     0.099166666667     0          
O        O      0.172200000000     0.817233333333     0.314366666667     0          
O        O      0.099925000000     0.992200000000     0.103866666667     0          
O        O      0.099925000000     0.769833333333     0.275766666667     0          
O        O      0.105650000000     0.736466666667     0.014400000000     0          
O        O      0.030725000000     0.938533333333     0.093900000000     0          
O        O      0.122425000000     0.820200000000     0.080433333333     0          
O        O      0.179575000000     0.779666666667     0.050133333333     0          
O        O      0.036150000000     0.729566666667     0.294933333333     0          
O        O      0.169750000000     0.697600000000     0.158533333333     0          
O        O      0.163725000000     0.991300000000     0.069633333333     0          
O        O      0.095400000000     0.901833333333     0.106500000000     0          
O        O      0.230850000000     0.855700000000     0.052833333333     0          
O        O      0.229900000000     0.769266666667     0.328900000000     0          
T        Si     0.113450000000     0.897533333333     0.272333333333     0          
T        Si     0.111425000000     0.867166666667     0.065933333333     0          
T        Si     0.107000000000     0.978000000000     0.225566666667     0          
T        Si     0.173450000000     0.716200000000     0.213533333333     0          
T        Si     0.167950000000     0.938800000000     0.037766666667     0          
T        Si     0.001125000000     0.759333333333     0.285800000000     0          
T        Si     0.046825000000     0.861333333333     0.313333333333     0          
O        O      0.111250000000     0.926266666667     0.234166666667     0          
O        O      0.077800000000     0.849433333333     0.018966666667     0          
O        O      0.150075000000     0.674466666667     0.229466666667     0          
O        O      0.150075000000     0.896833333333     0.057566666667     0          
O        O      0.144350000000     0.930200000000     0.318933333333     0          
O        O      0.219275000000     0.728133333333     0.239433333333     0          
O        O      0.127575000000     0.846466666667     0.252900000000     0          
O        O      0.070425000000     0.887000000000     0.283200000000     0          
O        O      0.213850000000     0.937100000000     0.038400000000     0          
O        O      0.080250000000     0.969066666667     0.174800000000     0          
O        O      0.086275000000     0.675366666667     0.263700000000     0          
O        O      0.154600000000     0.764833333333     0.226833333333     0          
O        O      0.019150000000     0.810966666667     0.280500000000     0          
O        O      0.020100000000     0.897400000000     0.004433333333     0          
T        Si     0.136550000000     0.769133333333     0.394333333333     0          
T        Si     0.138575000000     0.799500000000     0.600733333333     0          
T        Si     0.143000000000     0.688666666667     0.441100000000     0          
T        Si     0.076550000000     0.950466666667     0.453133333333     0          
T        Si     0.082050000000     0.727866666667     0.628900000000     0          
T        Si     0.248875000000     0.907333333333     0.380866666667     0          
T        Si     0.203175000000     0.805333333333     0.353333333333     0          
O        O      0.138750000000     0.740400000000     0.432500000000     0          
O        O      0.172200000000     0.817233333333     0.647700000000     0          
O        O      0.099925000000     0.992200000000     0.437200000000     0          
O        O      0.099925000000     0.769833333333     0.609100000000     0          
O        O      0.105650000000     0.736466666667     0.347733333333     0          
O        O      0.030725000000     0.938533333333     0.427233333333     0          
O        O      0.122425000000     0.820200000000     0.413766666667     0          
O        O      0.179575000000     0.779666666667     0.383466666667     0          
O        O      0.036150000000     0.729566666667     0.628266666667     0          
O        O      0.169750000000     0.697600000000     0.491866666667     0          
O        O      0.163725000000     0.991300000000     0.402966666667     0          
O        O      0.095400000000     0.901833333333     0.439833333333     0          
O        O      0.230850000000     0.855700000000     0.386166666667     0          
O        O      0.229900000000     0.769266666667     0.662233333333     0          
T        Si     0.113450000000     0.897533333333     0.605666666667     0          
T        Si     0.111425000000     0.867166666667     0.399266666667     0          
T        Si     0.107000000000     0.978000000000     0.558900000000     0          
T        Si     0.173450000000     0.716200000000     0.546866666667     0          
T        Si     0.167950000000     0.938800000000     0.371100000000     0          
T        Si     0.001125000000     0.759333333333     0.619133333333     0          
T        Si     0.046825000000     0.861333333333     0.646666666667     0          
O        O      0.111250000000     0.926266666667     0.567500000000     0          
O        O      0.077800000000     0.849433333333     0.352300000000     0          
O        O      0.150075000000     0.674466666667     0.562800000000     0          
O        O      0.150075000000     0.896833333333     0.390900000000     0          
O        O      0.144350000000     0.930200000000     0.652266666667     0          
O        O      0.219275000000     0.728133333333     0.572766666667     0          
O        O      0.127575000000     0.846466666667     0.586233333333     0          
O        O      0.070425000000     0.887000000000     0.616533333333     0          
O        O      0.213850000000     0.937100000000     0.371733333333     0          
O        O      0.080250000000     0.969066666667     0.508133333333     0          
O        O      0.086275000000     0.675366666667     0.597033333333     0          
O        O      0.154600000000     0.764833333333     0.560166666667     0          
O        O      0.019150000000     0.810966666667     0.613833333333     0          
O        O      0.020100000000     0.897400000000     0.337766666667     0          
T        Si     0.136550000000     0.769133333333     0.727666666667     0          
T        Si     0.138575000000     0.799500000000     0.934066666667     0          
T        Si     0.143000000000     0.688666666667     0.774433333333     0          
T        Si     0.076550000000     0.950466666667     0.786466666667     0          
T        Si     0.082050000000     0.727866666667     0.962233333333     0          
T        Si     0.248875000000     0.907333333333     0.714200000000     0          
T        Si     0.203175000000     0.805333333333     0.686666666667     0          
O        O      0.138750000000     0.740400000000     0.765833333333     0          
O        O      0.172200000000     0.817233333333     0.981033333333     0          
O        O      0.099925000000     0.992200000000     0.770533333333     0          
O        O      0.099925000000     0.769833333333     0.942433333333     0          
O        O      0.105650000000     0.736466666667     0.681066666667     0          
O        O      0.030725000000     0.938533333333     0.760566666667     0          
O        O      0.122425000000     0.820200000000     0.747100000000     0          
O        O      0.179575000000     0.779666666667     0.716800000000     0          
O        O      0.036150000000     0.729566666667     0.961600000000     0          
O        O      0.169750000000     0.697600000000     0.825200000000     0          
O        O      0.163725000000     0.991300000000     0.736300000000     0          
O        O      0.095400000000     0.901833333333     0.773166666667     0          
O        O      0.230850000000     0.855700000000     0.719500000000     0          
O        O      0.229900000000     0.769266666667     0.995566666667     0          
T        Si     0.113450000000     0.897533333333     0.939000000000     0          
T        Si     0.111425000000     0.867166666667     0.732600000000     0          
T        Si     0.107000000000     0.978000000000     0.892233333333     0          
T        Si     0.173450000000     0.716200000000     0.880200000000     0          
T        Si     0.167950000000     0.938800000000     0.704433333333     0          
T        Si     0.001125000000     0.759333333333     0.952466666667     0          
T        Si     0.046825000000     0.861333333333     0.980000000000     0          
O        O      0.111250000000     0.926266666667     0.900833333333     0          
O        O      0.077800000000     0.849433333333     0.685633333333     0          
O        O      0.150075000000     0.674466666667     0.896133333333     0          
O        O      0.150075000000     0.896833333333     0.724233333333     0          
O        O      0.144350000000     0.930200000000     0.985600000000     0          
O        O      0.219275000000     0.728133333333     0.906100000000     0          
O        O      0.127575000000     0.846466666667     0.919566666667     0          
O        O      0.070425000000     0.887000000000     0.949866666667     0          
O        O      0.213850000000     0.937100000000     0.705066666667     0          
O        O      0.080250000000     0.969066666667     0.841466666667     0          
O        O      0.086275000000     0.675366666667     0.930366666667     0          
O        O      0.154600000000     0.764833333333     0.893500000000     0          
O        O      0.019150000000     0.810966666667     0.947166666667     0          
O        O      0.020100000000     0.897400000000     0.671100000000     0          
T        Si     0.386550000000     0.102466666667     0.061000000000     0          
T        Si     0.388575000000     0.132833333333     0.267400000000     0          
T        Si     0.393000000000     0.022000000000     0.107766666667     0          
T        Si     0.326550000000     0.283800000000     0.119800000000     0          
T        Si     0.332050000000     0.061200000000     0.295566666667     0          
T        Si     0.498875000000     0.240666666667     0.047533333333     0          
T        Si     0.453175000000     0.138666666667     0.020000000000     0          
O        O      0.388750000000     0.073733333333     0.099166666667     0          
O        O      0.422200000000     0.150566666667     0.314366666667     0          
O        O      0.349925000000     0.325533333333     0.103866666667     0          
O        O      0.349925000000     0.103166666667     0.275766666667     0          
O        O      0.355650000000     0.069800000000     0.014400000000     0          
O        O      0.280725000000     0.271866666667     0.093900000000     0          
O        O      0.372425000000     0.153533333333     0.080433333333     0          
O        O      0.429575000000     0.113000000000     0.050133333333     0          
O        O      0.286150000000     0.062900000000     0.294933333333     0          
O        O      0.419750000000     0.030933333333     0.158533333333     0          
O        O      0.413725000000     0.324633333333     0.069633333333     0          
O        O      0.345400000000     0.235166666667     0.106500000000     0          
O        O      0.480850000000     0.189033333333     0.052833333333     0          
O        O      0.479900000000     0.102600000000     0.328900000000     0          
T        Si     0.363450000000     0.230866666667     0.272333333333     0          
T        Si     0.361425000000     0.200500000000     0.065933333333     0          
T        Si     0.357000000000     0.311333333333     0.225566666667     0          
T        Si     0.423450000000     0.049533333333     0.213533333333     0          
T        Si     0.417950000000     0.272133333333     0.037766666667     0          
T        Si     0.251125000000     0.092666666667     0.285800000000     0          
T        Si     0.296825000000     0.194666666667     0.313333333333     0          
O        O      0.361250000000     0.259600000000     0.234166666667     0          
O        O      0.327800000000     0.182766666667     0.018966666667     0          
O        O      0.400075000000     0.007800000000     0.229466666667     0          
O        O      0.400075000000     0.230166666667     0.057566666667     0          
O        O      0.394350000000     0.263533333333     0.318933333333     0          
O        O      0.469275000000     0.061466666667     0.239433333333     0          
O        O      0.377575000000     0.179800000000     0.252900000000     0          
O        O      0.320425000000     0.220333333333     0.283200000000     0          
O        O      0.463850000000     0.270433333333     0.038400000000     0          
O        O      0.330250000000     0.302400000000     0.174800000000     0          
O        O      0.336275000000     0.008700000000     0.263700000000     0          
O        O      0.404600000000     0.098166666667     0.226833333333     0          
O        O      0.269150000000     0.144300000000     0.280500000000     0          
O        O      0.270100000000     0.230733333333     0.004433333333     0          
T        Si     0.386550000000     0.102466666667     0.394333333333     0          
T        Si     0.388575000000     0.132833333333     0.600733333333     0          
T        Si     0.393000000000     0.022000000000     0.441100000000     0          
T        Si     0.326550000000     0.283800000000     0.453133333333     0          
T        Si     0.332050000000     0.061200000000     0.628900000000     0          
T        Si     0.498875000000     0.240666666667     0.380866666667     0          
T        Si     0.453175000000     0.138666666667     0.353333333333     0          
O        O      0.388750000000     0.073733333333     0.432500000000     0          
O        O      0.422200000000     0.150566666667     0.647700000000     0          
O        O      0.349925000000     0.325533333333     0.437200000000     0          
O        O      0.349925000000     0.103166666667     0.609100000000     0          
O        O      0.355650000000     0.069800000000     0.347733333333     0          
O        O      0.280725000000     0.271866666667     0.427233333333     0          
O        O      0.372425000000     0.153533333333     0.413766666667     0          
O        O      0.429575000000     0.113000000000     0.383466666667     0          
O        O      0.286150000000     0.062900000000     0.628266666667     0          
O        O      0.419750000000     0.030933333333     0.491866666667     0          
O        O      0.413725000000     0.324633333333     0.402966666667     0          
O        O      0.345400000000     0.235166666667     0.439833333333     0          
O        O      0.480850000000     0.189033333333     0.386166666667     0          
O        O      0.479900000000     0.102600000000     0.662233333333     0          
T        Si     0.363450000000     0.230866666667     0.605666666667     0          
T        Si     0.361425000000     0.200500000000     0.399266666667     0          
T        Si     0.357000000000     0.311333333333     0.558900000000     0          
T        Si     0.423450000000     0.049533333333     0.546866666667     0          
T        Si     0.417950000000     0.272133333333     0.371100000000     0          
T        Si     0.251125000000     0.092666666667     0.619133333333     0          
T        Si     0.296825000000     0.194666666667     0.646666666667     0          
O        O      0.361250000000     0.259600000000     0.567500000000     0          
O        O      0.327800000000     0.182766666667     0.352300000000     0          
O        O      0.400075000000     0.007800000000     0.562800000000     0          
O        O      0.400075000000     0.230166666667     0.390900000000     0          
O        O      0.394350000000     0.263533333333     0.652266666667     0          
O        O      0.469275000000     0.061466666667     0.572766666667     0          
O        O      0.377575000000     0.179800000000     0.586233333333     0          
O        O      0.320425000000     0.220333333333     0.616533333333     0          
O        O      0.463850000000     0.270433333333     0.371733333333     0          
O        O      0.330250000000     0.302400000000     0.508133333333     0          
O        O      0.336275000000     0.008700000000     0.597033333333     0          
O        O      0.404600000000     0.098166666667     0.560166666667     0          
O        O      0.269150000000     0.144300000000     0.613833333333     0          
O        O      0.270100000000     0.230733333333     0.337766666667     0          
T        Si     0.386550000000     0.102466666667     0.727666666667     0          
T        Si     0.388575000000     0.132833333333     0.934066666667     0          
T        Si     0.393000000000     0.022000000000     0.774433333333     0          
T        Si     0.326550000000     0.283800000000     0.786466666667     0          
T        Si     0.332050000000     0.061200000000     0.962233333333     0          
T        Si     0.498875000000     0.240666666667     0.714200000000     0          
T        Si     0.453175000000     0.138666666667     0.686666666667     0          
O        O      0.388750000000     0.073733333333     0.765833333333     0          
O        O      0.422200000000     0.150566666667     0.981033333333     0          
O        O      0.349925000000     0.325533333333     0.770533333333     0          
O        O      0.349925000000     0.103166666667     0.942433333333     0          
O        O      0.355650000000     0.069800000000     0.681066666667     0          
O        O      0.280725000000     0.271866666667     0.760566666667     0          
O        O      0.372425000000     0.153533333333     0.747100000000     0          
O        O      0.429575000000     0.113000000000     0.716800000000     0          
O        O      0.286150000000     0.062900000000     0.961600000000     0          
O        O      0.419750000000     0.030933333333     0.825200000000     0          
O        O      0.413725000000     0.324633333333     0.736300000000     0          
O        O      0.345400000000     0.235166666667     0.773166666667     0          
O        O      0.480850000000     0.189033333333     0.719500000000     0          
O        O      0.479900000000     0.102600000000     0.995566666667     0          
T        Si     0.363450000000     0.230866666667     0.939000000000     0          
T        Si     0.361425000000     0.200500000000     0.732600000000     0          
T        Si     0.357000000000     0.311333333333     0.892233333333     0          
T        Si     0.423450000000     0.049533333333     0.880200000000     0          
T        Si     0.417950000000     0.272133333333     0.704433333333     0          
T        Si     0.251125000000     0.092666666667     0.952466666667     0          
T        Si     0.296825000000     0.194666666667     0.980000000000     0          
O        O      0.361250000000     0.259600000000     0.900833333333     0          
O        O      0.327800000000     0.182766666667     0.685633333333     0          
O        O      0.400075000000     0.007800000000     0.896133333333     0          
O        O      0.400075000000     0.230166666667     0.724233333333     0          
O        O      0.394350000000     0.263533333333     0.985600000000     0          
O        O      0.469275000000     0.061466666667     0.906100000000     0          
O        O      0.377575000000     0.179800000000     0.919566666667     0          
O        O      0.320425000000     0.220333333333     0.949866666667     0          
O        O      0.463850000000     0.270433333333     0.705066666667     0          
O        O      0.330250000000     0.302400000000     0.841466666667     0          
O        O      0.336275000000     0.008700000000     0.930366666667     0          
O        O      0.404600000000     0.098166666667     0.893500000000     0          
O        O      0.269150000000     0.144300000000     0.947166666667     0          
O        O      0.270100000000     0.230733333333     0.671100000000     0          
T        Si     0.386550000000     0.435800000000     0.061000000000     0          
T        Si     0.388575000000     0.466166666667     0.267400000000     0          
T        Si     0.393000000000     0.355333333333     0.107766666667     0          
T        Si     0.326550000000     0.617133333333     0.119800000000     0          
T        Si     0.332050000000     0.394533333333     0.295566666667     0          
T        Si     0.498875000000     0.574000000000     0.047533333333     0          
T        Si     0.453175000000     0.472000000000     0.020000000000     0          
O        O      0.388750000000     0.407066666667     0.099166666667     0          
O        O      0.422200000000     0.483900000000     0.314366666667     0          
O        O      0.349925000000     0.658866666667     0.103866666667     0          
O        O      0.349925000000     0.436500000000     0.275766666667     0          
O        O      0.355650000000     0.403133333333     0.014400000000     0          
O        O      0.280725000000     0.605200000000     0.093900000000     0          
O        O      0.372425000000     0.486866666667     0.080433333333     0          
O        O      0.429575000000     0.446333333333     0.050133333333     0          
O        O      0.286150000000     0.396233333333     0.294933333333     0          
O        O      0.419750000000     0.364266666667     0.158533333333     0          
O        O      0.413725000000     0.657966666667     0.069633333333     0          
O        O      0.345400000000     0.568500000000     0.106500000000     0          
O        O      0.480850000000     0.522366666667     0.052833333333     0          
O        O      0.479900000000     0.435933333333     0.328900000000     0          
T        Si     0.363450000000     0.564200000000     0.272333333333     0          
T        Si     0.361425000000     0.533833333333     0.065933333333     0          
T        Si     0.357000000000     0.644666666667     0.225566666667     0          
T        Si     0.423450000000     0.382866666667     0.213533333333     0          
T        Si     0.417950000000     0.605466666667     0.037766666667     0          
T        Si     0.251125000000     0.426000000000     0.285800000000     0          
T        Si     0.296825000000     0.528000000000     0.313333333333     0          
O        O      0.361250000000     0.592933333333     0.234166666667     0          
O        O      0.327800000000     0.516100000000     0.018966666667     0          
O        O      0.400075000000     0.341133333333     0.229466666667     0          
O        O      0.400075000000     0.563500000000     0.057566666667     0          
O        O      0.394350000000     0.596866666667     0.318933333333     0          
O        O      0.469275000000     0.394800000000     0.239433333333     0          
O        O      0.377575000000     0.513133333333     0.252900000000     0          
O        O      0.320425000000     0.553666666667     0.283200000000     0          
O        O      0.463850000000     0.603766666667     0.038400000000     0          
O        O      0.330250000000     0.635733333333     0.174800000000     0          
O        O      0.336275000000     0.342033333333     0.263700000000     0          
O        O      0.404600000000     0.431500000000     0.226833333333     0          
O        O      0.269150000000     0.477633333333     0.280500000000     0          
O        O      0.270100000000     0.564066666667     0.004433333333     0          
T        Si     0.386550000000     0.435800000000     0.394333333333     0          
T        Si     0.388575000000     0.466166666667     0.600733333333     0          
T        Si     0.393000000000     0.355333333333     0.441100000000     0          
T        Si     0.326550000000     0.617133333333     0.453133333333     0          
T        Si     0.332050000000     0.394533333333     0.628900000000     0          
T        Si     0.498875000000     0.574000000000     0.380866666667     0          
T        Si     0.453175000000     0.472000000000     0.353333333333     0          
O        O      0.388750000000     0.407066666667     0.432500000000     0          
O        O      0.422200000000     0.483900000000     0.647700000000     0          
O        O      0.349925000000     0.658866666667     0.437200000000     0          
O        O      0.349925000000     0.436500000000     0.609100000000     0          
O        O      0.355650000000     0.403133333333     0.347733333333     0          
O        O      0.280725000000     0.605200000000     0.427233333333     0          
O        O      0.372425000000     0.486866666667     0.413766666667     0          
O        O      0.429575000000     0.446333333333     0.383466666667     0          
O        O      0.286150000000     0.396233333333     0.628266666667     0          
O        O      0.419750000000     0.364266666667     0.491866666667     0          
O        O      0.413725000000     0.657966666667     0.402966666667     0          
O        O      0.345400000000     0.568500000000     0.439833333333     0          
O        O      0.480850000000     0.522366666667     0.386166666667     0          
O        O      0.479900000000     0.435933333333     0.662233333333     0          
T        Si     0.363450000000     0.564200000000     0.605666666667     0          
T        Si     0.361425000000     0.533833333333     0.399266666667     0          
T        Si     0.357000000000     0.644666666667     0.558900000000     0          
T        Si     0.423450000000     0.382866666667     0.546866666667     0          
T        Si     0.417950000000     0.605466666667     0.371100000000     0          
T        Si     0.251125000000     0.426000000000     0.619133333333     0          
T        Si     0.296825000000     0.528000000000     0.646666666667     0          
O        O      0.361250000000     0.592933333333     0.567500000000     0          
O        O      0.327800000000     0.516100000000     0.352300000000     0          
O        O      0.400075000000     0.341133333333     0.562800000000     0          
O        O      0.400075000000     0.563500000000     0.390900000000     0          
O        O      0.394350000000     0.596866666667     0.652266666667     0          
O        O      0.469275000000     0.394800000000     0.572766666667     0          
O        O      0.377575000000     0.513133333333     0.586233333333     0          
O        O      0.320425000000     0.553666666667     0.616533333333     0          
O        O      0.463850000000     0.603766666667     0.371733333333     0          
O        O      0.330250000000     0.635733333333     0.508133333333     0          
O        O      0.336275000000     0.342033333333     0.597033333333     0          
O        O      0.404600000000     0.431500000000     0.560166666667     0          
O        O      0.269150000000     0.477633333333     0.613833333333     0          
O        O      0.270100000000     0.564066666667     0.337766666667     0          
T        Si     0.386550000000     0.435800000000     0.727666666667     0          
T        Si     0.388575000000     0.466166666667     0.934066666667     0          
T        Si     0.393000000000     0.355333333333     0.774433333333     0          
T        Si     0.326550000000     0.617133333333     0.786466666667     0          
T        Si     0.332050000000     0.394533333333     0.962233333333     0          
T        Si     0.498875000000     0.574000000000     0.714200000000     0          
T        Si     0.453175000000     0.472000000000     0.686666666667     0          
O        O      0.388750000000     0.407066666667     0.765833333333     0          
O        O      0.422200000000     0.483900000000     0.981033333333     0          
O        O      0.349925000000     0.658866666667     0.770533333333     0          
O        O      0.349925000000     0.436500000000     0.942433333333     0          
O        O      0.355650000000     0.403133333333     0.681066666667     0          
O        O      0.280725000000     0.605200000000     0.760566666667     0          
O        O      0.372425000000     0.486866666667     0.747100000000     0          
O        O      0.429575000000     0.446333333333     0.716800000000     0          
O        O      0.286150000000     0.396233333333     0.961600000000     0          
O        O      0.419750000000     0.364266666667     0.825200000000     0          
O        O      0.413725000000     0.657966666667     0.736300000000     0          
O        O      0.345400000000     0.568500000000     0.773166666667     0          
O        O      0.480850000000     0.522366666667     0.719500000000     0          
O        O      0.479900000000     0.435933333333     0.995566666667     0          
T        Si     0.363450000000     0.564200000000     0.939000000000     0          
T        Si     0.361425000000     0.533833333333     0.732600000000     0          
T        Si     0.357000000000     0.644666666667     0.892233333333     0          
T        Si     0.423450000000     0.382866666667     0.880200000000     0          
T        Si     0.417950000000     0.605466666667     0.704433333333     0          
T        Si     0.251125000000     0.426000000000     0.952466666667     0          
T        Si     0.296825000000     0.528000000000     0.980000000000     0          
O        O      0.361250000000     0.592933333333     0.900833333333     0          
O        O      0.327800000000     0.516100000000     0.685633333333     0          
O        O      0.400075000000     0.341133333333     0.896133333333     0          
O        O      0.400075000000     0.563500000000     0.724233333333     0          
O        O      0.394350000000     0.596866666667     0.985600000000     0          
O        O      0.469275000000     0.394800000000     0.906100000000     0          
O        O      0.377575000000     0.513133333333     0.919566666667     0          
O        O      0.320425000000     0.553666666667     0.949866666667     0          
O        O      0.463850000000     0.603766666667     0.705066666667     0          
O        O      0.330250000000     0.635733333333     0.841466666667     0          
O        O      0.336275000000     0.342033333333     0.930366666667     0          
O        O      0.404600000000     0.431500000000     0.893500000000     0          
O        O      0.269150000000     0.477633333333     0.947166666667     0          
O        O      0.270100000000     0.564066666667     0.671100000000     0          
T        Si     0.386550000000     0.769133333333     0.061000000000     0          
T        Si     0.388575000000     0.799500000000     0.267400000000     0          
T        Si     0.393000000000     0.688666666667     0.107766666667     0          
T        Si     0.326550000000     0.950466666667     0.119800000000     0          
T        Si     0.332050000000     0.727866666667     0.295566666667     0          
T        Si     0.498875000000     0.907333333333     0.047533333333     0          
T        Si     0.453175000000     0.805333333333     0.020000000000     0          
O        O      0.388750000000     0.740400000000     0.099166666667     0          
O        O      0.422200000000     0.817233333333     0.314366666667     0          
O        O      0.349925000000     0.992200000000     0.103866666667     0          
O        O      0.349925000000     0.769833333333     0.275766666667     0          
O        O      0.355650000000     0.736466666667     0.014400000000     0          
O        O      0.280725000000     0.938533333333     0.093900000000     0          
O        O      0.372425000000     0.820200000000     0.080433333333     0          
O        O      0.429575000000     0.779666666667     0.050133333333     0          
O        O      0.286150000000     0.729566666667     0.294933333333     0          
O        O      0.419750000000     0.697600000000     0.158533333333     0          
O        O      0.413725000000     0.991300000000     0.069633333333     0          
O        O      0.345400000000     0.901833333333     0.106500000000     0          
O        O      0.480850000000     0.855700000000     0.052833333333     0          
O        O      0.479900000000     0.769266666667     0.328900000000     0          
T        Si     0.363450000000     0.897533333333     0.272333333333     0          
T        Si     0.361425000000     0.867166666667     0.065933333333     0          
T        Si     0.357000000000     0.978000000000     0.225566666667     0          
T        Si     0.423450000000     0.716200000000     0.213533333333     0          
T        Si     0.417950000000     0.938800000000     0.037766666667     0          
T        Si     0.251125000000     0.759333333333     0.285800000000     0          
T        Si     0.296825000000     0.861333333333     0.313333333333     0          
O        O      0.361250000000     0.926266666667     0.234166666667     0          
O        O      0.327800000000     0.849433333333     0.018966666667     0          
O        O      0.400075000000     0.674466666667     0.229466666667     0          
O        O      0.400075000000     0.896833333333     0.057566666667     0          
O        O      0.394350000000     0.930200000000     0.318933333333     0          
O        O      0.469275000000     0.728133333333     0.239433333333     0          
O        O      0.377575000000     0.846466666667     0.252900000000     0          
O        O      0.320425000000     0.887000000000     0.283200000000     0          
O        O      0.463850000000     0.937100000000     0.038400000000     0          
O        O      0.330250000000     0.969066666667     0.174800000000     0          
O        O      0.336275000000     0.675366666667     0.263700000000     0          
O        O      0.404600000000     0.764833333333     0.226833333333     0          
O        O      0.269150000000     0.810966666667     0.280500000000     0          
O        O      0.270100000000     0.897400000000     0.004433333333     0          
T        Si     0.386550000000     0.769133333333     0.394333333333     0          
T        Si     0.388575000000     0.799500000000     0.600733333333     0          
T        Si     0.393000000000     0.688666666667     0.441100000000     0          
T        Si     0.326550000000     0.950466666667     0.453133333333     0          
T        Si     0.332050000000     0.727866666667     0.628900000000     0          
T        Si     0.498875000000     0.907333333333     0.380866666667     0          
T        Si     0.453175000000     0.805333333333     0.353333333333     0          
O        O      0.388750000000     0.740400000000     0.432500000000     0          
O        O      0.422200000000     0.817233333333     0.647700000000     0          
O        O      0.349925000000     0.992200000000     0.437200000000     0          
O        O      0.349925000000     0.769833333333     0.609100000000     0          
O        O      0.355650000000     0.736466666667     0.347733333333     0          
O        O      0.280725000000     0.938533333333     0.427233333333     0          
O        O      0.372425000000     0.820200000000     0.413766666667     0          
O        O      0.429575000000     0.779666666667     0.383466666667     0          
O        O      0.286150000000     0.729566666667     0.628266666667     0          
O        O      0.419750000000     0.697600000000     0.491866666667     0          
O        O      0.413725000000     0.991300000000     0.402966666667     0          
O        O      0.345400000000     0.901833333333     0.439833333333     0          
O        O      0.480850000000     0.855700000000     0.386166666667     0          
O        O      0.479900000000     0.769266666667     0.662233333333     0          
T        Si     0.363450000000     0.897533333333     0.605666666667     0          
T        Si     0.361425000000     0.867166666667     0.399266666667     0          
T        Si     0.357000000000     0.978000000000     0.558900000000     0          
T        Si     0.423450000000     0.716200000000     0.546866666667     0          
T        Si     0.417950000000     0.938800000000     0.371100000000     0          
T        Si     0.251125000000     0.759333333333     0.619133333333     0          
T        Si     0.296825000000     0.861333333333     0.646666666667     0          
O        O      0.361250000000     0.926266666667     0.567500000000     0          
O        O      0.327800000000     0.849433333333     0.352300000000     0          
O        O      0.400075000000     0.674466666667     0.562800000000     0          
O        O      0.400075000000     0.896833333333     0.390900000000     0          
O        O      0.394350000000     0.930200000000     0.652266666667     0          
O        O      0.469275000000     0.728133333333     0.572766666667     0          
O        O      0.377575000000     0.846466666667     0.586233333333     0          
O        O      0.320425000000     0.887000000000     0.616533333333     0          
O        O      0.463850000000     0.937100000000     0.371733333333     0          
O        O      0.330250000000     0.969066666667     0.508133333333     0          
O        O      0.336275000000     0.675366666667     0.597033333333     0          
O        O      0.404600000000     0.764833333333     0.560166666667     0          
O        O      0.269150000000     0.810966666667     0.613833333333     0          
O        O      0.270100000000     0.897400000000     0.337766666667     0          
T        Si     0.386550000000     0.769133333333     0.727666666667     0          
T        Si     0.388575000000     0.799500000000     0.934066666667     0          
T        Si     0.393000000000     0.688666666667     0.774433333333     0          
T        Si     0.326550000000     0.950466666667     0.786466666667     0          
T        Si     0.332050000000     0.727866666667     0.962233333333     0          
T        Si     0.498875000000     0.907333333333     0.714200000000     0          
T        Si     0.453175000000     0.805333333333     0.686666666667     0          
O        O      0.388750000000     0.740400000000     0.765833333333     0          
O        O      0.422200000000     0.817233333333     0.981033333333     0          
O        O      0.349925000000     0.992200000000     0.770533333333     0          
O        O      0.349925000000     0.769833333333     0.942433333333     0          
O        O      0.355650000000     0.736466666667     0.681066666667     0          
O        O      0.280725000000     0.938533333333     0.760566666667     0          
O        O      0.372425000000     0.820200000000     0.747100000000     0          
O        O      0.429575000000     0.779666666667     0.716800000000     0          
O        O      0.286150000000     0.729566666667     0.961600000000     0          
O        O      0.419750000000     0.697600000000     0.825200000000     0          
O        O      0.413725000000     0.991300000000     0.736300000000     0          
O        O      0.345400000000     0.901833333333     0.773166666667     0          
O        O      0.480850000000     0.855700000000     0.719500000000     0          
O        O      0.479900000000     0.769266666667     0.995566666667     0          
T        Si     0.363450000000     0.897533333333     0.939000000000     0          
T        Si     0.361425000000     0.867166666667     0.732600000000     0          
T        Si     0.357000000000     0.978000000000     0.892233333333     0          
T        Si     0.423450000000     0.716200000000     0.880200000000     0          
T        Si     0.417950000000     0.938800000000     0.704433333333     0          
T        Si     0.251125000000     0.759333333333     0.952466666667     0          
T        Si     0.296825000000     0.861333333333     0.980000000000     0          
O        O      0.361250000000     0.926266666667     0.900833333333     0          
O        O      0.327800000000     0.849433333333     0.685633333333     0          
O        O      0.400075000000     0.674466666667     0.896133333333     0          
O        O      0.400075000000     0.896833333333     0.724233333333     0          
O        O      0.394350000000     0.930200000000     0.985600000000     0          
O        O      0.469275000000     0.728133333333     0.906100000000     0          
O        O      0.377575000000     0.846466666667     0.919566666667     0          
O        O      0.320425000000     0.887000000000     0.949866666667     0          
O        O      0.463850000000     0.937100000000     0.705066666667     0          
O        O      0.330250000000     0.969066666667     0.841466666667     0          
O        O      0.336275000000     0.675366666667     0.930366666667     0          
O        O      0.404600000000     0.764833333333     0.893500000000     0          
O        O      0.269150000000     0.810966666667     0.947166666667     0          
O        O      0.270100000000     0.897400000000     0.671100000000     0          
T        Si     0.636550000000     0.102466666667     0.061000000000     0          
T        Si     0.638575000000     0.132833333333     0.267400000000     0          
T        Si     0.643000000000     0.022000000000     0.107766666667     0          
T        Si     0.576550000000     0.283800000000     0.119800000000     0          
T        Si     0.582050000000     0.061200000000     0.295566666667     0          
T        Si     0.748875000000     0.240666666667     0.047533333333     0          
T        Si     0.703175000000     0.138666666667     0.020000000000     0          
O        O      0.638750000000     0.073733333333     0.099166666667     0          
O        O      0.672200000000     0.150566666667     0.314366666667     0          
O        O      0.599925000000     0.325533333333     0.103866666667     0          
O        O      0.599925000000     0.103166666667     0.275766666667     0          
O        O      0.605650000000     0.069800000000     0.014400000000     0          
O        O      0.530725000000     0.271866666667     0.093900000000     0          
O        O      0.622425000000     0.153533333333     0.080433333333     0          
O        O      0.679575000000     0.113000000000     0.050133333333     0          
O        O      0.536150000000     0.062900000000     0.294933333333     0          
O        O      0.669750000000     0.030933333333     0.158533333333     0          
O        O      0.663725000000     0.324633333333     0.069633333333     0          
O        O      0.595400000000     0.235166666667     0.106500000000     0          
O        O      0.730850000000     0.189033333333     0.052833333333     0          
O        O      0.729900000000     0.102600000000     0.328900000000     0          
T        Si     0.613450000000     0.230866666667     0.272333333333     0          
T        Si     0.611425000000     0.200500000000     0.065933333333     0          
T        Si     0.607000000000     0.311333333333     0.225566666667     0          
T        Si     0.673450000000     0.049533333333     0.213533333333     0          
T        Si     0.667950000000     0.272133333333     0.037766666667     0          
T        Si     0.501125000000     0.092666666667     0.285800000000     0          
T        Si     0.546825000000     0.194666666667     0.313333333333     0          
O        O      0.611250000000     0.259600000000     0.234166666667     0          
O        O      0.577800000000     0.182766666667     0.018966666667     0          
O        O      0.650075000000     0.007800000000     0.229466666667     0          
O        O      0.650075000000     0.230166666667     0.057566666667     0          
O        O      0.644350000000     0.263533333333     0.318933333333     0          
O        O      0.719275000000     0.061466666667     0.239433333333     0          
O        O      0.627575000000     0.179800000000     0.252900000000     0          
O        O      0.570425000000     0.220333333333     0.283200000000     0          
O        O      0.713850000000     0.270433333333     0.038400000000     0          
O        O      0.580250000000     0.302400000000     0.174800000000     0          
O        O      0.586275000000     0.008700000000     0.263700000000     0          
O        O      0.654600000000     0.098166666667     0.226833333333     0          
O        O      0.519150000000     0.144300000000     0.280500000000     0          
O        O      0.520100000000     0.230733333333     0.004433333333     0          
T        Si     0.636550000000     0.102466666667     0.394333333333     0          
T        Si     0.638575000000     0.132833333333     0.600733333333     0          
T        Si     0.643000000000     0.022000000000     0.441100000000     0          
T        Si     0.576550000000     0.283800000000     0.453133333333     0          
T        Si     0.582050000000     0.061200000000     0.628900000000     0          
T        Si     0.748875000000     0.240666666667     0.380866666667     0          
T        Si     0.703175000000     0.138666666667     0.353333333333     0          
O        O      0.638750000000     0.073733333333     0.432500000000     0          
O        O      0.672200000000     0.150566666667     0.647700000000     0          
O        O      0.599925000000     0.325533333333     0.437200000000     0          
O        O      0.599925000000     0.103166666667     0.609100000000     0          
O        O      0.605650000000     0.069800000000     0.347733333333     0          
O        O      0.530725000000     0.271866666667     0.427233333333     0          
O        O      0.622425000000     0.153533333333     0.413766666667     0          
O        O      0.679575000000     0.113000000000     0.383466666667     0          
O        O      0.536150000000     0.062900000000     0.628266666667     0          
O        O      0.669750000000     0.030933333333     0.491866666667     0          
O        O      0.663725000000     0.324633333333     0.402966666667     0          
O        O      0.595400000000     0.235166666667     0.439833333333     0          
O        O      0.730850000000     0.189033333333     0.386166666667     0          
O        O      0.729900000000     0.102600000000     0.662233333333     0          
T        Si     0.613450000000     0.230866666667     0.605666666667     0          
T        Si     0.611425000000     0.200500000000     0.399266666667     0          
T        Si     0.607000000000     0.311333333333     0.558900000000     0          
T        Si     0.673450000000     0.049533333333     0.546866666667     0          
T        Si     0.667950000000     0.272133333333     0.371100000000     0          
T        Si     0.501125000000     0.092666666667     0.619133333333     0          
T        Si     0.546825000000     0.194666666667     0.646666666667     0          
O        O      0.611250000000     0.259600000000     0.567500000000     0          
O        O      0.577800000000     0.182766666667     0.352300000000     0          
O        O      0.650075000000     0.007800000000     0.562800000000     0          
O        O      0.650075000000     0.230166666667     0.390900000000     0          
O        O      0.644350000000     0.263533333333     0.652266666667     0          
O        O      0.719275000000     0.061466666667     0.572766666667     0          
O        O      0.627575000000     0.179800000000     0.586233333333     0          
O        O      0.570425000000     0.220333333333     0.616533333333     0          
O        O      0.713850000000     0.270433333333     0.371733333333     0          
O        O      0.580250000000     0.302400000000     0.508133333333     0          
O        O      0.586275000000     0.008700000000     0.597033333333     0          
O        O      0.654600000000     0.098166666667     0.560166666667     0          
O        O      0.519150000000     0.144300000000     0.613833333333     0          
O        O      0.520100000000     0.230733333333     0.337766666667     0          
T        Si     0.636550000000     0.102466666667     0.727666666667     0          
T        Si     0.638575000000     0.132833333333     0.934066666667     0          
T        Si     0.643000000000     0.022000000000     0.774433333333     0          
T        Si     0.576550000000     0.283800000000     0.786466666667     0          
T        Si     0.582050000000     0.061200000000     0.962233333333     0          
T        Si     0.748875000000     0.240666666667     0.714200000000     0          
T        Si     0.703175000000     0.138666666667     0.686666666667     0          
O        O      0.638750000000     0.073733333333     0.765833333333     0          
O        O      0.672200000000     0.150566666667     0.981033333333     0          
O        O      0.599925000000     0.325533333333     0.770533333333     0          
O        O      0.599925000000     0.103166666667     0.942433333333     0          
O        O      0.605650000000     0.069800000000     0.681066666667     0          
O        O      0.530725000000     0.271866666667     0.760566666667     0          
O        O      0.622425000000     0.153533333333     0.747100000000     0          
O        O      0.679575000000     0.113000000000     0.716800000000     0          
O        O      0.536150000000     0.062900000000     0.961600000000     0          
O        O      0.669750000000     0.030933333333     0.825200000000     0          
O        O      0.663725000000     0.324633333333     0.736300000000     0          
O        O      0.595400000000     0.235166666667     0.773166666667     0          
O        O      0.730850000000     0.189033333333     0.719500000000     0          
O        O      0.729900000000     0.102600000000     0.995566666667     0          
T        Si     0.613450000000     0.230866666667     0.939000000000     0          
T        Si     0.611425000000     0.200500000000     0.732600000000     0          
T        Si     0.607000000000     0.311333333333     0.892233333333     0          
T        Si     0.673450000000     0.049533333333     0.880200000000     0          
T        Si     0.667950000000     0.272133333333     0.704433333333     0          
T        Si     0.501125000000     0.092666666667     0.952466666667     0          
T        Si     0.546825000000     0.194666666667     0.980000000000     0          
O        O      0.611250000000     0.259600000000     0.900833333333     0          
O        O      0.577800000000     0.182766666667     0.685633333333     0          
O        O      0.650075000000     0.007800000000     0.896133333333     0          
O        O      0.650075000000     0.230166666667     0.724233333333     0          
O        O      0.644350000000     0.263533333333     0.985600000000     0          
O        O      0.719275000000     0.061466666667     0.906100000000     0          
O        O      0.627575000000     0.179800000000     0.919566666667     0          
O        O      0.570425000000     0.220333333333     0.949866666667     0          
O        O      0.713850000000     0.270433333333     0.705066666667     0          
O        O      0.580250000000     0.302400000000     0.841466666667     0          
O        O      0.586275000000     0.008700000000     0.930366666667     0          
O        O      0.654600000000     0.098166666667     0.893500000000     0          
O        O      0.519150000000     0.144300000000     0.947166666667     0          
O        O      0.520100000000     0.230733333333     0.671100000000     0          
T        Si     0.636550000000     0.435800000000     0.061000000000     0          
T        Si     0.638575000000     0.466166666667     0.267400000000     0          
T        Si     0.643000000000     0.355333333333     0.107766666667     0          
T        Si     0.576550000000     0.617133333333     0.119800000000     0          
T        Si     0.582050000000     0.394533333333     0.295566666667     0          
T        Si     0.748875000000     0.574000000000     0.047533333333     0          
T        Si     0.703175000000     0.472000000000     0.020000000000     0          
O        O      0.638750000000     0.407066666667     0.099166666667     0          
O        O      0.672200000000     0.483900000000     0.314366666667     0          
O        O      0.599925000000     0.658866666667     0.103866666667     0          
O        O      0.599925000000     0.436500000000     0.275766666667     0          
O        O      0.605650000000     0.403133333333     0.014400000000     0          
O        O      0.530725000000     0.605200000000     0.093900000000     0          
O        O      0.622425000000     0.486866666667     0.080433333333     0          
O        O      0.679575000000     0.446333333333     0.050133333333     0          
O        O      0.536150000000     0.396233333333     0.294933333333     0          
O        O      0.669750000000     0.364266666667     0.158533333333     0          
O        O      0.663725000000     0.657966666667     0.069633333333     0          
O        O      0.595400000000     0.568500000000     0.106500000000     0          
O        O      0.730850000000     0.522366666667     0.052833333333     0          
O        O      0.729900000000     0.435933333333     0.328900000000     0          
T        Si     0.613450000000     0.564200000000     0.272333333333     0          
T        Si     0.611425000000     0.533833333333     0.065933333333     0          
T        Si     0.607000000000     0.644666666667     0.225566666667     0          
T        Si     0.673450000000     0.382866666667     0.213533333333     0          
T        Si     0.667950000000     0.605466666667     0.037766666667     0          
T        Si     0.501125000000     0.426000000000     0.285800000000     0          
T        Si     0.546825000000     0.528000000000     0.313333333333     0          
O        O      0.611250000000     0.592933333333     0.234166666667     0          
O        O      0.577800000000     0.516100000000     0.018966666667     0          
O        O      0.650075000000     0.341133333333     0.229466666667     0          
O        O      0.650075000000     0.563500000000     0.057566666667     0          
O        O      0.644350000000     0.596866666667     0.318933333333     0          
O        O      0.719275000000     0.394800000000     0.239433333333     0          
O        O      0.627575000000     0.513133333333     0.252900000000     0          
O        O      0.570425000000     0.553666666667     0.283200000000     0          
O        O      0.713850000000     0.603766666667     0.038400000000     0          
O        O      0.580250000000     0.635733333333     0.174800000000     0          
O        O      0.586275000000     0.342033333333     0.263700000000     0          
O        O      0.654600000000     0.431500000000     0.226833333333     0          
O        O      0.519150000000     0.477633333333     0.280500000000     0          
O        O      0.520100000000     0.564066666667     0.004433333333     0          
T        Si     0.636550000000     0.435800000000     0.394333333333     0          
T        Si     0.638575000000     0.466166666667     0.600733333333     0          
T        Si     0.643000000000     0.355333333333     0.441100000000     0          
T        Si     0.576550000000     0.617133333333     0.453133333333     0          
T        Si     0.582050000000     0.394533333333     0.628900000000     0          
T        Si     0.748875000000     0.574000000000     0.380866666667     0          
T        Si     0.703175000000     0.472000000000     0.353333333333     0          
O        O      0.638750000000     0.407066666667     0.432500000000     0          
O        O      0.672200000000     0.483900000000     0.647700000000     0          
O        O      0.599925000000     0.658866666667     0.437200000000     0          
O        O      0.599925000000     0.436500000000     0.609100000000     0          
O        O      0.605650000000     0.403133333333     0.347733333333     0          
O        O      0.530725000000     0.605200000000     0.427233333333     0          
O        O      0.622425000000     0.486866666667     0.413766666667     0          
O        O      0.679575000000     0.446333333333     0.383466666667     0          
O        O      0.536150000000     0.396233333333     0.628266666667     0          
O        O      0.669750000000     0.364266666667     0.491866666667     0          
O        O      0.663725000000     0.657966666667     0.402966666667     0          
O        O      0.595400000000     0.568500000000     0.439833333333     0          
O        O      0.730850000000     0.522366666667     0.386166666667     0          
O        O      0.729900000000     0.435933333333     0.662233333333     0          
T        Si     0.613450000000     0.564200000000     0.605666666667     0          
T        Si     0.611425000000     0.533833333333     0.399266666667     0          
T        Si     0.607000000000     0.644666666667     0.558900000000     0          
T        Si     0.673450000000     0.382866666667     0.546866666667     0          
T        Si     0.667950000000     0.605466666667     0.371100000000     0          
T        Si     0.501125000000     0.426000000000     0.619133333333     0          
T        Si     0.546825000000     0.528000000000     0.646666666667     0          
O        O      0.611250000000     0.592933333333     0.567500000000     0          
O        O      0.577800000000     0.516100000000     0.352300000000     0          
O        O      0.650075000000     0.341133333333     0.562800000000     0          
O        O      0.650075000000     0.563500000000     0.390900000000     0          
O        O      0.644350000000     0.596866666667     0.652266666667     0          
O        O      0.719275000000     0.394800000000     0.572766666667     0          
O        O      0.627575000000     0.513133333333     0.586233333333     0          
O        O      0.570425000000     0.553666666667     0.616533333333     0          
O        O      0.713850000000     0.603766666667     0.371733333333     0          
O        O      0.580250000000     0.635733333333     0.508133333333     0          
O        O      0.586275000000     0.342033333333     0.597033333333     0          
O        O      0.654600000000     0.431500000000     0.560166666667     0          
O        O      0.519150000000     0.477633333333     0.613833333333     0          
O        O      0.520100000000     0.564066666667     0.337766666667     0          
T        Si     0.636550000000     0.435800000000     0.727666666667     0          
T        Si     0.638575000000     0.466166666667     0.934066666667     0          
T        Si     0.643000000000     0.355333333333     0.774433333333     0          
T        Si     0.576550000000     0.617133333333     0.786466666667     0          
T        Si     0.582050000000     0.394533333333     0.962233333333     0          
T        Si     0.748875000000     0.574000000000     0.714200000000     0          
T        Si     0.703175000000     0.472000000000     0.686666666667     0          
O        O      0.638750000000     0.407066666667     0.765833333333     0          
O        O      0.672200000000     0.483900000000     0.981033333333     0          
O        O      0.599925000000     0.658866666667     0.770533333333     0          
O        O      0.599925000000     0.436500000000     0.942433333333     0          
O        O      0.605650000000     0.403133333333     0.681066666667     0          
O        O      0.530725000000     0.605200000000     0.760566666667     0          
O        O      0.622425000000     0.486866666667     0.747100000000     0          
O        O      0.679575000000     0.446333333333     0.716800000000     0          
O        O      0.536150000000     0.396233333333     0.961600000000     0          
O        O      0.669750000000     0.364266666667     0.825200000000     0          
O        O      0.663725000000     0.657966666667     0.736300000000     0          
O        O      0.595400000000     0.568500000000     0.773166666667     0          
O        O      0.730850000000     0.522366666667     0.719500000000     0          
O        O      0.729900000000     0.435933333333     0.995566666667     0          
T        Si     0.613450000000     0.564200000000     0.939000000000     0          
T        Si     0.611425000000     0.533833333333     0.732600000000     0          
T        Si     0.607000000000     0.644666666667     0.892233333333     0          
T        Si     0.673450000000     0.382866666667     0.880200000000     0          
T        Si     0.667950000000     0.605466666667     0.704433333333     0          
T        Si     0.501125000000     0.426000000000     0.952466666667     0          
T        Si     0.546825000000     0.528000000000     0.980000000000     0          
O        O      0.611250000000     0.592933333333     0.900833333333     0          
O        O      0.577800000000     0.516100000000     0.685633333333     0          
O        O      0.650075000000     0.341133333333     0.896133333333     0          
O        O      0.650075000000     0.563500000000     0.724233333333     0          
O        O      0.644350000000     0.596866666667     0.985600000000     0          
O        O      0.719275000000     0.394800000000     0.906100000000     0          
O        O      0.627575000000     0.513133333333     0.919566666667     0          
O        O      0.570425000000     0.553666666667     0.949866666667     0          
O        O      0.713850000000     0.603766666667     0.705066666667     0          
O        O      0.580250000000     0.635733333333     0.841466666667     0          
O        O      0.586275000000     0.342033333333     0.930366666667     0          
O        O      0.654600000000     0.431500000000     0.893500000000     0          
O        O      0.519150000000     0.477633333333     0.947166666667     0          
O        O      0.520100000000     0.564066666667     0.671100000000     0          
T        Si     0.636550000000     0.769133333333     0.061000000000     0          
T        Si     0.638575000000     0.799500000000     0.267400000000     0          
T        Si     0.643000000000     0.688666666667     0.107766666667     0          
T        Si     0.576550000000     0.950466666667     0.119800000000     0          
T        Si     0.582050000000     0.727866666667     0.295566666667     0          
T        Si     0.748875000000     0.907333333333     0.047533333333     0          
T        Si     0.703175000000     0.805333333333     0.020000000000     0          
O        O      0.638750000000     0.740400000000     0.099166666667     0          
O        O      0.672200000000     0.817233333333     0.314366666667     0          
O        O      0.599925000000     0.992200000000     0.103866666667     0          
O        O      0.599925000000     0.769833333333     0.275766666667     0          
O        O      0.605650000000     0.736466666667     0.014400000000     0          
O        O      0.530725000000     0.938533333333     0.093900000000     0          
O        O      0.622425000000     0.820200000000     0.080433333333     0          
O        O      0.679575000000     0.779666666667     0.050133333333     0          
O        O      0.536150000000     0.729566666667     0.294933333333     0          
O        O      0.669750000000     0.697600000000     0.158533333333     0          
O        O      0.663725000000     0.991300000000     0.069633333333     0          
O        O      0.595400000000     0.901833333333     0.106500000000     0          
O        O      0.730850000000     0.855700000000     0.052833333333     0          
O        O      0.729900000000     0.769266666667     0.328900000000     0          
T        Si     0.613450000000     0.897533333333     0.272333333333     0          
T        Si     0.611425000000     0.867166666667     0.065933333333     0          
T        Si     0.607000000000     0.978000000000     0.225566666667     0          
T        Si     0.673450000000     0.716200000000     0.213533333333     0          
T        Si     0.667950000000     0.938800000000     0.037766666667     0          
T        Si     0.501125000000     0.759333333333     0.285800000000     0          
T        Si     0.546825000000     0.861333333333     0.313333333333     0          
O        O      0.611250000000     0.926266666667     0.234166666667     0          
O        O      0.577800000000     0.849433333333     0.018966666667     0          
O        O      0.650075000000     0.674466666667     0.229466666667     0          
O        O      0.650075000000     0.896833333333     0.057566666667     0          
O        O      0.644350000000     0.930200000000     0.318933333333     0          
O        O      0.719275000000     0.728133333333     0.239433333333     0          
O        O      0.627575000000     0.846466666667     0.252900000000     0          
O        O      0.570425000000     0.887000000000     0.283200000000     0          
O        O      0.713850000000     0.937100000000     0.038400000000     0          
O        O      0.580250000000     0.969066666667     0.174800000000     0          
O        O      0.586275000000     0.675366666667     0.263700000000     0          
O        O      0.654600000000     0.764833333333     0.226833333333     0          
O        O      0.519150000000     0.810966666667     0.280500000000     0          
O        O      0.520100000000     0.897400000000     0.004433333333     0          
T        Si     0.636550000000     0.769133333333     0.394333333333     0          
T        Si     0.638575000000     0.799500000000     0.600733333333     0          
T        Si     0.643000000000     0.688666666667     0.441100000000     0          
T        Si     0.576550000000     0.950466666667     0.453133333333     0          
T        Si     0.582050000000     0.727866666667     0.628900000000     0          
T        Si     0.748875000000     0.907333333333     0.380866666667     0          
T        Si     0.703175000000     0.805333333333     0.353333333333     0          
O        O      0.638750000000     0.740400000000     0.432500000000     0          
O        O      0.672200000000     0.817233333333     0.647700000000     0          
O        O      0.599925000000     0.992200000000     0.437200000000     0          
O        O      0.599925000000     0.769833333333     0.609100000000     0          
O        O      0.605650000000     0.736466666667     0.347733333333     0          
O        O      0.530725000000     0.938533333333     0.427233333333     0          
O        O      0.622425000000     0.820200000000     0.413766666667     0          
O        O      0.679575000000     0.779666666667     0.383466666667     0          
O        O      0.536150000000     0.729566666667     0.628266666667     0          
O        O      0.669750000000     0.697600000000     0.491866666667     0          
O        O      0.663725000000     0.991300000000     0.402966666667     0          
O        O      0.595400000000     0.901833333333     0.439833333333     0          
O        O      0.730850000000     0.855700000000     0.386166666667     0          
O        O      0.729900000000     0.769266666667     0.662233333333     0          
T        Si     0.613450000000     0.897533333333     0.605666666667     0          
T        Si     0.611425000000     0.867166666667     0.399266666667     0          
T        Si     0.607000000000     0.978000000000     0.558900000000     0          
T        Si     0.673450000000     0.716200000000     0.546866666667     0          
T        Si     0.667950000000     0.938800000000     0.371100000000     0          
T        Si     0.501125000000     0.759333333333     0.619133333333     0          
T        Si     0.546825000000     0.861333333333     0.646666666667     0          
O        O      0.611250000000     0.926266666667     0.567500000000     0          
O        O      0.577800000000     0.849433333333     0.352300000000     0          
O        O      0.650075000000     0.674466666667     0.562800000000     0          
O        O      0.650075000000     0.896833333333     0.390900000000     0          
O        O      0.644350000000     0.930200000000     0.652266666667     0          
O        O      0.719275000000     0.728133333333     0.572766666667     0          
O        O      0.627575000000     0.846466666667     0.586233333333     0          
O        O      0.570425000000     0.887000000000     0.616533333333     0          
O        O      0.713850000000     0.937100000000     0.371733333333     0          
O        O      0.580250000000     0.969066666667     0.508133333333     0          
O        O      0.586275000000     0.675366666667     0.597033333333     0          
O        O      0.654600000000     0.764833333333     0.560166666667     0          
O        O      0.519150000000     0.810966666667     0.613833333333     0          
O        O      0.520100000000     0.897400000000     0.337766666667     0          
T        Si     0.636550000000     0.769133333333     0.727666666667     0          
T        Si     0.638575000000     0.799500000000     0.934066666667     0          
T        Si     0.643000000000     0.688666666667     0.774433333333     0          
T        Si     0.576550000000     0.950466666667     0.786466666667     0          
T        Si     0.582050000000     0.727866666667     0.962233333333     0          
T        Si     0.748875000000     0.907333333333     0.714200000000     0          
T        Si     0.703175000000     0.805333333333     0.686666666667     0          
O        O      0.638750000000     0.740400000000     0.765833333333     0          
O        O      0.672200000000     0.817233333333     0.981033333333     0          
O        O      0.599925000000     0.992200000000     0.770533333333     0          
O        O      0.599925000000     0.769833333333     0.942433333333     0          
O        O      0.605650000000     0.736466666667     0.681066666667     0          
O        O      0.530725000000     0.938533333333     0.760566666667     0          
O        O      0.622425000000     0.820200000000     0.747100000000     0          
O        O      0.679575000000     0.779666666667     0.716800000000     0          
O        O      0.536150000000     0.729566666667     0.961600000000     0          
O        O      0.669750000000     0.697600000000     0.825200000000     0          
O        O      0.663725000000     0.991300000000     0.736300000000     0          
O        O      0.595400000000     0.901833333333     0.773166666667     0          
O        O      0.730850000000     0.855700000000     0.719500000000     0          
O        O      0.729900000000     0.769266666667     0.995566666667     0          
T        Si     0.613450000000     0.897533333333     0.939000000000     0          
T        Si     0.611425000000     0.867166666667     0.732600000000     0          
T        Si     0.607000000000     0.978000000000     0.892233333333     0          
T        Si     0.673450000000     0.716200000000     0.880200000000     0          
T        Si     0.667950000000     0.938800000000     0.704433333333     0          
T        Si     0.501125000000     0.759333333333     0.952466666667     0          
T        Si     0.546825000000     0.861333333333     0.980000000000     0          
O        O      0.611250000000     0.926266666667     0.900833333333     0          
O        O      0.577800000000     0.849433333333     0.685633333333     0          
O        O      0.650075000000     0.674466666667     0.896133333333     0          
O        O      0.650075000000     0.896833333333     0.724233333333     0          
O        O      0.644350000000     0.930200000000     0.985600000000     0          
O        O      0.719275000000     0.728133333333     0.906100000000     0          
O        O      0.627575000000     0.846466666667     0.919566666667     0          
O        O      0.570425000000     0.887000000000     0.949866666667     0          
O        O      0.713850000000     0.937100000000     0.705066666667     0          
O        O      0.580250000000     0.969066666667     0.841466666667     0          
O        O      0.586275000000     0.675366666667     0.930366666667     0          
O        O      0.654600000000     0.764833333333     0.893500000000     0          
O        O      0.519150000000     0.810966666667     0.947166666667     0          
O        O      0.520100000000     0.897400000000     0.671100000000     0          
T        Si     0.886550000000     0.102466666667     0.061000000000     0          
T        Si     0.888575000000     0.132833333333     0.267400000000     0          
T        Si     0.893000000000     0.022000000000     0.107766666667     0          
T        Si     0.826550000000     0.283800000000     0.119800000000     0          
T        Si     0.832050000000     0.061200000000     0.295566666667     0          
T        Si     0.998875000000     0.240666666667     0.047533333333     0          
T        Si     0.953175000000     0.138666666667     0.020000000000     0          
O        O      0.888750000000     0.073733333333     0.099166666667     0          
O        O      0.922200000000     0.150566666667     0.314366666667     0          
O        O      0.849925000000     0.325533333333     0.103866666667     0          
O        O      0.849925000000     0.103166666667     0.275766666667     0          
O        O      0.855650000000     0.069800000000     0.014400000000     0          
O        O      0.780725000000     0.271866666667     0.093900000000     0          
O        O      0.872425000000     0.153533333333     0.080433333333     0          
O        O      0.929575000000     0.113000000000     0.050133333333     0          
O        O      0.786150000000     0.062900000000     0.294933333333     0          
O        O      0.919750000000     0.030933333333     0.158533333333     0          
O        O      0.913725000000     0.324633333333     0.069633333333     0          
O        O      0.845400000000     0.235166666667     0.106500000000     0          
O        O      0.980850000000     0.189033333333     0.052833333333     0          
O        O      0.979900000000     0.102600000000     0.328900000000     0          
T        Si     0.863450000000     0.230866666667     0.272333333333     0          
T        Si     0.861425000000     0.200500000000     0.065933333333     0          
T        Si     0.857000000000     0.311333333333     0.225566666667     0          
T        Si     0.923450000000     0.049533333333     0.213533333333     0          
T        Si     0.917950000000     0.272133333333     0.037766666667     0          
T        Si     0.751125000000     0.092666666667     0.285800000000     0          
T        Si     0.796825000000     0.194666666667     0.313333333333     0          
O        O      0.861250000000     0.259600000000     0.234166666667     0          
O        O      0.827800000000     0.182766666667     0.018966666667     0          
O        O      0.900075000000     0.007800000000     0.229466666667     0          
O        O      0.900075000000     0.230166666667     0.057566666667     0          
O        O      0.894350000000     0.263533333333     0.318933333333     0          
O        O      0.969275000000     0.061466666667     0.239433333333     0          
O        O      0.877575000000     0.179800000000     0.252900000000     0          
O        O      0.820425000000     0.220333333333     0.283200000000     0          
O        O      0.963850000000     0.270433333333     0.038400000000     0          
O        O      0.830250000000     0.302400000000     0.174800000000     0          
O        O      0.836275000000     0.008700000000     0.263700000000     0          
O        O      0.904600000000     0.098166666667     0.226833333333     0          
O        O      0.769150000000     0.144300000000     0.280500000000     0          
O        O      0.770100000000     0.230733333333     0.004433333333     0          
T        Si     0.886550000000     0.102466666667     0.394333333333     0          
T        Si     0.888575000000     0.132833333333     0.600733333333     0          
T        Si     0.893000000000     0.022000000000     0.441100000000     0          
T        Si     0.826550000000     0.283800000000     0.453133333333     0          
T        Si     0.832050000000     0.061200000000     0.628900000000     0          
T        Si     0.998875000000     0.240666666667     0.380866666667     0          
T        Si     0.953175000000     0.138666666667     0.353333333333     0          
O        O      0.888750000000     0.073733333333     0.432500000000     0          
O        O      0.922200000000     0.150566666667     0.647700000000     0          
O        O      0.849925000000     0.325533333333     0.437200000000     0          
O        O      0.849925000000     0.103166666667     0.609100000000     0          
O        O      0.855650000000     0.069800000000     0.347733333333     0          
O        O      0.780725000000     0.271866666667     0.427233333333     0          
O        O      0.872425000000     0.153533333333     0.413766666667     0          
O        O      0.929575000000     0.113000000000     0.383466666667     0          
O        O      0.786150000000     0.062900000000     0.628266666667     0          
O        O      0.919750000000     0.030933333333     0.491866666667     0          
O        O      0.913725000000     0.324633333333     0.402966666667     0          
O        O      0.845400000000     0.235166666667     0.439833333333     0          
O        O      0.980850000000     0.189033333333     0.386166666667     0          
O        O      0.979900000000     0.102600000000     0.662233333333     0          
T        Si     0.863450000000     0.230866666667     0.605666666667     0          
T        Si     0.861425000000     0.200500000000     0.399266666667     0          
T        Si     0.857000000000     0.311333333333     0.558900000000     0          
T        Si     0.923450000000     0.049533333333     0.546866666667     0          
T        Si     0.917950000000     0.272133333333     0.371100000000     0          
T        Si     0.751125000000     0.092666666667     0.619133333333     0          
T        Si     0.796825000000     0.194666666667     0.646666666667     0          
O        O      0.861250000000     0.259600000000     0.567500000000     0          
O        O      0.827800000000     0.182766666667     0.352300000000     0          
O        O      0.900075000000     0.007800000000     0.562800000000     0          
O        O      0.900075000000     0.230166666667     0.390900000000     0          
O        O      0.894350000000     0.263533333333     0.652266666667     0          
O        O      0.969275000000     0.061466666667     0.572766666667     0          
O        O      0.877575000000     0.179800000000     0.586233333333     0          
O        O      0.820425000000     0.220333333333     0.616533333333     0          
O        O      0.963850000000     0.270433333333     0.371733333333     0          
O        O      0.830250000000     0.302400000000     0.508133333333     0          
O        O      0.836275000000     0.008700000000     0.597033333333     0          
O        O      0.904600000000     0.098166666667     0.560166666667     0          
O        O      0.769150000000     0.144300000000     0.613833333333     0          
O        O      0.770100000000     0.230733333333     0.337766666667     0          
T        Si     0.886550000000     0.102466666667     0.727666666667     0          
T        Si     0.888575000000     0.132833333333     0.934066666667     0          
T        Si     0.893000000000     0.022000000000     0.774433333333     0          
T        Si     0.826550000000     0.283800000000     0.786466666667     0          
T        Si     0.832050000000     0.061200000000     0.962233333333     0          
T        Si     0.998875000000     0.240666666667     0.714200000000     0          
T        Si     0.953175000000     0.138666666667     0.686666666667     0          
O        O      0.888750000000     0.073733333333     0.765833333333     0          
O        O      0.922200000000     0.150566666667     0.981033333333     0          
O        O      0.849925000000     0.325533333333     0.770533333333     0          
O        O      0.849925000000     0.103166666667     0.942433333333     0          
O        O      0.855650000000     0.069800000000     0.681066666667     0          
O        O      0.780725000000     0.271866666667     0.760566666667     0          
O        O      0.872425000000     0.153533333333     0.747100000000     0          
O        O      0.929575000000     0.113000000000     0.716800000000     0          
O        O      0.786150000000     0.062900000000     0.961600000000     0          
O        O      0.919750000000     0.030933333333     0.825200000000     0          
O        O      0.913725000000     0.324633333333     0.736300000000     0          
O        O      0.845400000000     0.235166666667     0.773166666667     0          
O        O      0.980850000000     0.189033333333     0.719500000000     0          
O        O      0.979900000000     0.102600000000     0.995566666667     0          
T        Si     0.863450000000     0.230866666667     0.939000000000     0          
T        Si     0.861425000000     0.200500000000     0.732600000000     0          
T        Si     0.857000000000     0.311333333333     0.892233333333     0          
T        Si     0.923450000000     0.049533333333     0.880200000000     0          
T        Si     0.917950000000     0.272133333333     0.704433333333     0          
T        Si     0.751125000000     0.092666666667     0.952466666667     0          
T        Si     0.796825000000     0.194666666667     0.980000000000     0          
O        O      0.861250000000     0.259600000000     0.900833333333     0          
O        O      0.827800000000     0.182766666667     0.685633333333     0          
O        O      0.900075000000     0.007800000000     0.896133333333     0          
O        O      0.900075000000     0.230166666667     0.724233333333     0          
O        O      0.894350000000     0.263533333333     0.985600000000     0          
O        O      0.969275000000     0.061466666667     0.906100000000     0          
O        O      0.877575000000     0.179800000000     0.919566666667     0          
O        O      0.820425000000     0.220333333333     0.949866666667     0          
O        O      0.963850000000     0.270433333333     0.705066666667     0          
O        O      0.830250000000     0.302400000000     0.841466666667     0          
O        O      0.836275000000     0.008700000000     0.930366666667     0          
O        O      0.904600000000     0.098166666667     0.893500000000     0          
O        O      0.769150000000     0.144300000000     0.947166666667     0          
O        O      0.770100000000     0.230733333333     0.671100000000     0          
T        Si     0.886550000000     0.435800000000     0.061000000000     0          
T        Si     0.888575000000     0.466166666667     0.267400000000     0          
T        Si     0.893000000000     0.355333333333     0.107766666667     0          
T        Si     0.826550000000     0.617133333333     0.119800000000     0          
T        Si     0.832050000000     0.394533333333     0.295566666667     0          
T        Si     0.998875000000     0.574000000000     0.047533333333     0          
T        Si     0.953175000000     0.472000000000     0.020000000000     0          
O        O      0.888750000000     0.407066666667     0.099166666667     0          
O        O      0.922200000000     0.483900000000     0.314366666667     0          
O        O      0.849925000000     0.658866666667     0.103866666667     0          
O        O      0.849925000000     0.436500000000     0.275766666667     0          
O        O      0.855650000000     0.403133333333     0.014400000000     0          
O        O      0.780725000000     0.605200000000     0.093900000000     0          
O        O      0.872425000000     0.486866666667     0.080433333333     0          
O        O      0.929575000000     0.446333333333     0.050133333333     0          
O        O      0.786150000000     0.396233333333     0.294933333333     0          
O        O      0.919750000000     0.364266666667     0.158533333333     0          
O        O      0.913725000000     0.657966666667     0.069633333333     0          
O        O      0.845400000000     0.568500000000     0.106500000000     0          
O        O      0.980850000000     0.522366666667     0.052833333333     0          
O        O      0.979900000000     0.435933333333     0.328900000000     0          
T        Si     0.863450000000     0.564200000000     0.272333333333     0          
T        Si     0.861425000000     0.533833333333     0.065933333333     0          
T        Si     0.857000000000     0.644666666667     0.225566666667     0          
T        Si     0.923450000000     0.382866666667     0.213533333333     0          
T        Si     0.917950000000     0.605466666667     0.037766666667     0          
T        Si     0.751125000000     0.426000000000     0.285800000000     0          
T        Si     0.796825000000     0.528000000000     0.313333333333     0          
O        O      0.861250000000     0.592933333333     0.234166666667     0          
O        O      0.827800000000     0.516100000000     0.018966666667     0          
O        O      0.900075000000     0.341133333333     0.229466666667     0          
O        O      0.900075000000     0.563500000000     0.057566666667     0          
O        O      0.894350000000     0.596866666667     0.318933333333     0          
O        O      0.969275000000     0.394800000000     0.239433333333     0          
O        O      0.877575000000     0.513133333333     0.252900000000     0          
O        O      0.820425000000     0.553666666667     0.283200000000     0          
O        O      0.963850000000     0.603766666667     0.038400000000     0          
O        O      0.830250000000     0.635733333333     0.174800000000     0          
O        O      0.836275000000     0.342033333333     0.263700000000     0          
O        O      0.904600000000     0.431500000000     0.226833333333     0          
O        O      0.769150000000     0.477633333333     0.280500000000     0          
O        O      0.770100000000     0.564066666667     0.004433333333     0          
T        Si     0.886550000000     0.435800000000     0.394333333333     0          
T        Si     0.888575000000     0.466166666667     0.600733333333     0          
T        Si     0.893000000000     0.355333333333     0.441100000000     0          
T        Si     0.826550000000     0.617133333333     0.453133333333     0          
T        Si     0.832050000000     0.394533333333     0.628900000000     0          
T        Si     0.998875000000     0.574000000000     0.380866666667     0          
T        Si     0.953175000000     0.472000000000     0.353333333333     0          
O        O      0.888750000000     0.407066666667     0.432500000000     0          
O        O      0.922200000000     0.483900000000     0.647700000000     0          
O        O      0.849925000000     0.658866666667     0.437200000000     0          
O        O      0.849925000000     0.436500000000     0.609100000000     0          
O        O      0.855650000000     0.403133333333     0.347733333333     0          
O        O      0.780725000000     0.605200000000     0.427233333333     0          
O        O      0.872425000000     0.486866666667     0.413766666667     0          
O        O      0.929575000000     0.446333333333     0.383466666667     0          
O        O      0.786150000000     0.396233333333     0.628266666667     0          
O        O      0.919750000000     0.364266666667     0.491866666667     0          
O        O      0.913725000000     0.657966666667     0.402966666667     0          
O        O      0.845400000000     0.568500000000     0.439833333333     0          
O        O      0.980850000000     0.522366666667     0.386166666667     0          
O        O      0.979900000000     0.435933333333     0.662233333333     0          
T        Si     0.863450000000     0.564200000000     0.605666666667     0          
T        Si     0.861425000000     0.533833333333     0.399266666667     0          
T        Si     0.857000000000     0.644666666667     0.558900000000     0          
T        Si     0.923450000000     0.382866666667     0.546866666667     0          
T        Si     0.917950000000     0.605466666667     0.371100000000     0          
T        Si     0.751125000000     0.426000000000     0.619133333333     0          
T        Si     0.796825000000     0.528000000000     0.646666666667     0          
O        O      0.861250000000     0.592933333333     0.567500000000     0          
O        O      0.827800000000     0.516100000000     0.352300000000     0          
O        O      0.900075000000     0.341133333333     0.562800000000     0          
O        O      0.900075000000     0.563500000000     0.390900000000     0          
O        O      0.894350000000     0.596866666667     0.652266666667     0          
O        O      0.969275000000     0.394800000000     0.572766666667     0          
O        O      0.877575000000     0.513133333333     0.586233333333     0          
O        O      0.820425000000     0.553666666667     0.616533333333     0          
O        O      0.963850000000     0.603766666667     0.371733333333     0          
O        O      0.830250000000     0.635733333333     0.508133333333     0          
O        O      0.836275000000     0.342033333333     0.597033333333     0          
O        O      0.904600000000     0.431500000000     0.560166666667     0          
O        O      0.769150000000     0.477633333333     0.613833333333     0          
O        O      0.770100000000     0.564066666667     0.337766666667     0          
T        Si     0.886550000000     0.435800000000     0.727666666667     0          
T        Si     0.888575000000     0.466166666667     0.934066666667     0          
T        Si     0.893000000000     0.355333333333     0.774433333333     0          
T        Si     0.826550000000     0.617133333333     0.786466666667     0          
T        Si     0.832050000000     0.394533333333     0.962233333333     0          
T        Si     0.998875000000     0.574000000000     0.714200000000     0          
T        Si     0.953175000000     0.472000000000     0.686666666667     0          
O        O      0.888750000000     0.407066666667     0.765833333333     0          
O        O      0.922200000000     0.483900000000     0.981033333333     0          
O        O      0.849925000000     0.658866666667     0.770533333333     0          
O        O      0.849925000000     0.436500000000     0.942433333333     0          
O        O      0.855650000000     0.403133333333     0.681066666667     0          
O        O      0.780725000000     0.605200000000     0.760566666667     0          
O        O      0.872425000000     0.486866666667     0.747100000000     0          
O        O      0.929575000000     0.446333333333     0.716800000000     0          
O        O      0.786150000000     0.396233333333     0.961600000000     0          
O        O      0.919750000000     0.364266666667     0.825200000000     0          
O        O      0.913725000000     0.657966666667     0.736300000000     0          
O        O      0.845400000000     0.568500000000     0.773166666667     0          
O        O      0.980850000000     0.522366666667     0.719500000000     0          
O        O      0.979900000000     0.435933333333     0.995566666667     0          
T        Si     0.863450000000     0.564200000000     0.939000000000     0          
T        Si     0.861425000000     0.533833333333     0.732600000000     0          
T        Si     0.857000000000     0.644666666667     0.892233333333     0          
T        Si     0.923450000000     0.382866666667     0.880200000000     0          
T        Si     0.917950000000     0.605466666667     0.704433333333     0          
T        Si     0.751125000000     0.426000000000     0.952466666667     0          
T        Si     0.796825000000     0.528000000000     0.980000000000     0          
O        O      0.861250000000     0.592933333333     0.900833333333     0          
O        O      0.827800000000     0.516100000000     0.685633333333     0          
O        O      0.900075000000     0.341133333333     0.896133333333     0          
O        O      0.900075000000     0.563500000000     0.724233333333     0          
O        O      0.894350000000     0.596866666667     0.985600000000     0          
O        O      0.969275000000     0.394800000000     0.906100000000     0          
O        O      0.877575000000     0.513133333333     0.919566666667     0          
O        O      0.820425000000     0.553666666667     0.949866666667     0          
O        O      0.963850000000     0.603766666667     0.705066666667     0          
O        O      0.830250000000     0.635733333333     0.841466666667     0          
O        O      0.836275000000     0.342033333333     0.930366666667     0          
O        O      0.904600000000     0.431500000000     0.893500000000     0          
O        O      0.769150000000     0.477633333333     0.947166666667     0          
O        O      0.770100000000     0.564066666667     0.671100000000     0          
T        Si     0.886550000000     0.769133333333     0.061000000000     0          
T        Si     0.888575000000     0.799500000000     0.267400000000     0          
T        Si     0.893000000000     0.688666666667     0.107766666667     0          
T        Si     0.826550000000     0.950466666667     0.119800000000     0          
T        Si     0.832050000000     0.727866666667     0.295566666667     0          
T        Si     0.998875000000     0.907333333333     0.047533333333     0          
T        Si     0.953175000000     0.805333333333     0.020000000000     0          
O        O      0.888750000000     0.740400000000     0.099166666667     0          
O        O      0.922200000000     0.817233333333     0.314366666667     0          
O        O      0.849925000000     0.992200000000     0.103866666667     0          
O        O      0.849925000000     0.769833333333     0.275766666667     0          
O        O      0.855650000000     0.736466666667     0.014400000000     0          
O        O      0.780725000000     0.938533333333     0.093900000000     0          
O        O      0.872425000000     0.820200000000     0.080433333333     0          
O        O      0.929575000000     0.779666666667     0.050133333333     0          
O        O      0.786150000000     0.729566666667     0.294933333333     0          
O        O      0.919750000000     0.697600000000     0.158533333333     0          
O        O      0.913725000000     0.991300000000     0.069633333333     0          
O        O      0.845400000000     0.901833333333     0.106500000000     0          
O        O      0.980850000000     0.855700000000     0.052833333333     0          
O        O      0.979900000000     0.769266666667     0.328900000000     0          
T        Si     0.863450000000     0.897533333333     0.272333333333     0          
T        Si     0.861425000000     0.867166666667     0.065933333333     0          
T        Si     0.857000000000     0.978000000000     0.225566666667     0          
T        Si     0.923450000000     0.716200000000     0.213533333333     0          
T        Si     0.917950000000     0.938800000000     0.037766666667     0          
T        Si     0.751125000000     0.759333333333     0.285800000000     0          
T        Si     0.796825000000     0.861333333333     0.313333333333     0          
O        O      0.861250000000     0.926266666667     0.234166666667     0          
O        O      0.827800000000     0.849433333333     0.018966666667     0          
O        O      0.900075000000     0.674466666667     0.229466666667     0          
O        O      0.900075000000     0.896833333333     0.057566666667     0          
O        O      0.894350000000     0.930200000000     0.318933333333     0          
O        O      0.969275000000     0.728133333333     0.239433333333     0          
O        O      0.877575000000     0.846466666667     0.252900000000     0          
O        O      0.820425000000     0.887000000000     0.283200000000     0          
O        O      0.963850000000     0.937100000000     0.038400000000     0          
O        O      0.830250000000     0.969066666667     0.174800000000     0          
O        O      0.836275000000     0.675366666667     0.263700000000     0          
O        O      0.904600000000     0.764833333333     0.226833333333     0          
O        O      0.769150000000     0.810966666667     0.280500000000     0          
O        O      0.770100000000     0.897400000000     0.004433333333     0          
T        Si     0.886550000000     0.769133333333     0.394333333333     0          
T        Si     0.888575000000     0.799500000000     0.600733333333     0          
T        Si     0.893000000000     0.688666666667     0.441100000000     0          
T        Si     0.826550000000     0.950466666667     0.453133333333     0          
T        Si     0.832050000000     0.727866666667     0.628900000000     0          
T        Si     0.998875000000     0.907333333333     0.380866666667     0          
T        Si     0.953175000000     0.805333333333     0.353333333333     0          
O        O      0.888750000000     0.740400000000     0.432500000000     0          
O        O      0.922200000000     0.817233333333     0.647700000000     0          
O        O      0.849925000000     0.992200000000     0.437200000000     0          
O        O      0.849925000000     0.769833333333     0.609100000000     0          
O        O      0.855650000000     0.736466666667     0.347733333333     0          
O        O      0.780725000000     0.938533333333     0.427233333333     0          
O        O      0.872425000000     0.820200000000     0.413766666667     0          
O        O      0.929575000000     0.779666666667     0.383466666667     0          
O        O      0.786150000000     0.729566666667     0.628266666667     0          
O        O      0.919750000000     0.697600000000     0.491866666667     0          
O        O      0.913725000000     0.991300000000     0.402966666667     0          
O        O      0.845400000000     0.901833333333     0.439833333333     0          
O        O      0.980850000000     0.855700000000     0.386166666667     0          
O        O      0.979900000000     0.769266666667     0.662233333333     0          
T        Si     0.863450000000     0.897533333333     0.605666666667     0          
T        Si     0.861425000000     0.867166666667     0.399266666667     0          
T        Si     0.857000000000     0.978000000000     0.558900000000     0          
T        Si     0.923450000000     0.716200000000     0.546866666667     0          
T        Si     0.917950000000     0.938800000000     0.371100000000     0          
T        Si     0.751125000000     0.759333333333     0.619133333333     0          
T        Si     0.796825000000     0.861333333333     0.646666666667     0          
O        O      0.861250000000     0.926266666667     0.567500000000     0          
O        O      0.827800000000     0.849433333333     0.352300000000     0          
O        O      0.900075000000     0.674466666667     0.562800000000     0          
O        O      0.900075000000     0.896833333333     0.390900000000     0          
O        O      0.894350000000     0.930200000000     0.652266666667     0          
O        O      0.969275000000     0.728133333333     0.572766666667     0          
O        O      0.877575000000     0.846466666667     0.586233333333     0          
O        O      0.820425000000     0.887000000000     0.616533333333     0          
O        O      0.963850000000     0.937100000000     0.371733333333     0          
O        O      0.830250000000     0.969066666667     0.508133333333     0          
O        O      0.836275000000     0.675366666667     0.597033333333     0          
O        O      0.904600000000     0.764833333333     0.560166666667     0          
O        O      0.769150000000     0.810966666667     0.613833333333     0          
O        O      0.770100000000     0.897400000000     0.337766666667     0          
T        Si     0.886550000000     0.769133333333     0.727666666667     0          
T        Si     0.888575000000     0.799500000000     0.934066666667     0          
T        Si     0.893000000000     0.688666666667     0.774433333333     0          
T        Si     0.826550000000     0.950466666667     0.786466666667     0          
T        Si     0.832050000000     0.727866666667     0.962233333333     0          
T        Si     0.998875000000     0.907333333333     0.714200000000     0          
T        Si     0.953175000000     0.805333333333     0.686666666667     0          
O        O      0.888750000000     0.740400000000     0.765833333333     0          
O        O      0.922200000000     0.817233333333     0.981033333333     0          
O        O      0.849925000000     0.992200000000     0.770533333333     0          
O        O      0.849925000000     0.769833333333     0.942433333333     0          
O        O      0.855650000000     0.736466666667     0.681066666667     0          
O        O      0.780725000000     0.938533333333     0.760566666667     0          
O        O      0.872425000000     0.820200000000     0.747100000000     0          
O        O      0.929575000000     0.779666666667     0.716800000000     0          
O        O      0.786150000000     0.729566666667     0.961600000000     0          
O        O      0.919750000000     0.697600000000     0.825200000000     0          
O        O      0.913725000000     0.991300000000     0.736300000000     0          
O        O      0.845400000000     0.901833333333     0.773166666667     0          
O        O      0.980850000000     0.855700000000     0.719500000000     0          
O        O      0.979900000000     0.769266666667     0.995566666667     0          
T        Si     0.863450000000     0.897533333333     0.939000000000     0          
T        Si     0.861425000000     0.867166666667     0.732600000000     0          
T        Si     0.857000000000     0.978000000000     0.892233333333     0          
T        Si     0.923450000000     0.716200000000     0.880200000000     0          
T        Si     0.917950000000     0.938800000000     0.704433333333     0          
T        Si     0.751125000000     0.759333333333     0.952466666667     0          
T        Si     0.796825000000     0.861333333333     0.980000000000     0          
O        O      0.861250000000     0.926266666667     0.900833333333     0          
O        O      0.827800000000     0.849433333333     0.685633333333     0          
O        O      0.900075000000     0.674466666667     0.896133333333     0          
O        O      0.900075000000     0.896833333333     0.724233333333     0          
O        O      0.894350000000     0.930200000000     0.985600000000     0          
O        O      0.969275000000     0.728133333333     0.906100000000     0          
O        O      0.877575000000     0.846466666667     0.919566666667     0          
O        O      0.820425000000     0.887000000000     0.949866666667     0          
O        O      0.963850000000     0.937100000000     0.705066666667     0          
O        O      0.830250000000     0.969066666667     0.841466666667     0          
O        O      0.836275000000     0.675366666667     0.930366666667     0          
O        O      0.904600000000     0.764833333333     0.893500000000     0          
O        O      0.769150000000     0.810966666667     0.947166666667     0          
O        O      0.770100000000     0.897400000000     0.671100000000     0          


