data_zeolite

_audit_creation_method RASPA-1.0
_audit_creation_date 2021-6-7
_audit_author_name ''

_cell_length_a    25.221
_cell_length_b    5.256
_cell_length_c    15.022
_cell_angle_alpha 90
_cell_angle_beta  103.89
_cell_angle_gamma 90
_cell_volume      38662.2

_symmetry_cell_setting          monoclinic
_symmetry_space_group_name_Hall 'P 1'
_symmetry_space_group_name_H-M  'P 1'
_symmetry_Int_Tables_number     1

_symmetry_equiv_pos_as_xyz 'x,y,z'

loop_
_atom_site_label
_atom_site_type_symbol
_atom_site_fract_x
_atom_site_fract_y
_atom_site_fract_z
_atom_site_charge
T        Si     0.275750000000     0.100000000000     0.321200000000     0          
T        Si     0.288500000000     0.100000000000     0.226450000000     0          
T        Si     0.361500000000     0.000000000000     0.149650000000     0          
T        Si     0.302700000000     0.000000000000     0.364100000000     0          
T        Si     0.321400000000     0.000000000000     0.213900000000     0          
T        Si     0.352650000000     0.000000000000     0.315950000000     0          
T        Si     0.347650000000     0.000000000000     0.451600000000     0          
T        Si     0.367400000000     0.000000000000     0.053450000000     0          
T        Si     0.224250000000     0.100000000000     0.178800000000     0          
T        Si     0.211500000000     0.100000000000     0.273550000000     0          
T        Si     0.138500000000     0.000000000000     0.350350000000     0          
T        Si     0.197300000000     0.000000000000     0.135900000000     0          
T        Si     0.178600000000     0.000000000000     0.286100000000     0          
T        Si     0.147350000000     0.000000000000     0.184050000000     0          
T        Si     0.152350000000     0.000000000000     0.048400000000     0          
T        Si     0.132600000000     0.000000000000     0.446550000000     0          
T        Si     0.025750000000     0.000000000000     0.321200000000     0          
T        Si     0.038500000000     0.000000000000     0.226450000000     0          
T        Si     0.111500000000     0.100000000000     0.149650000000     0          
T        Si     0.052700000000     0.100000000000     0.364100000000     0          
T        Si     0.071400000000     0.100000000000     0.213900000000     0          
T        Si     0.102650000000     0.100000000000     0.315950000000     0          
T        Si     0.097650000000     0.100000000000     0.451600000000     0          
T        Si     0.117400000000     0.100000000000     0.053450000000     0          
T        Si     0.474250000000     0.000000000000     0.178800000000     0          
T        Si     0.461500000000     0.000000000000     0.273550000000     0          
T        Si     0.388500000000     0.100000000000     0.350350000000     0          
T        Si     0.447300000000     0.100000000000     0.135900000000     0          
T        Si     0.428600000000     0.100000000000     0.286100000000     0          
T        Si     0.397350000000     0.100000000000     0.184050000000     0          
T        Si     0.402350000000     0.100000000000     0.048400000000     0          
T        Si     0.382600000000     0.100000000000     0.446550000000     0          
T        Si     0.275750000000     0.100000000000     0.821200000000     0          
T        Si     0.288500000000     0.100000000000     0.726450000000     0          
T        Si     0.361500000000     0.000000000000     0.649650000000     0          
T        Si     0.302700000000     0.000000000000     0.864100000000     0          
T        Si     0.321400000000     0.000000000000     0.713900000000     0          
T        Si     0.352650000000     0.000000000000     0.815950000000     0          
T        Si     0.347650000000     0.000000000000     0.951600000000     0          
T        Si     0.367400000000     0.000000000000     0.553450000000     0          
T        Si     0.224250000000     0.100000000000     0.678800000000     0          
T        Si     0.211500000000     0.100000000000     0.773550000000     0          
T        Si     0.138500000000     0.000000000000     0.850350000000     0          
T        Si     0.197300000000     0.000000000000     0.635900000000     0          
T        Si     0.178600000000     0.000000000000     0.786100000000     0          
T        Si     0.147350000000     0.000000000000     0.684050000000     0          
T        Si     0.152350000000     0.000000000000     0.548400000000     0          
T        Si     0.132600000000     0.000000000000     0.946550000000     0          
T        Si     0.025750000000     0.000000000000     0.821200000000     0          
T        Si     0.038500000000     0.000000000000     0.726450000000     0          
T        Si     0.111500000000     0.100000000000     0.649650000000     0          
T        Si     0.052700000000     0.100000000000     0.864100000000     0          
T        Si     0.071400000000     0.100000000000     0.713900000000     0          
T        Si     0.102650000000     0.100000000000     0.815950000000     0          
T        Si     0.097650000000     0.100000000000     0.951600000000     0          
T        Si     0.117400000000     0.100000000000     0.553450000000     0          
T        Si     0.474250000000     0.000000000000     0.678800000000     0          
T        Si     0.461500000000     0.000000000000     0.773550000000     0          
T        Si     0.388500000000     0.100000000000     0.850350000000     0          
T        Si     0.447300000000     0.100000000000     0.635900000000     0          
T        Si     0.428600000000     0.100000000000     0.786100000000     0          
T        Si     0.397350000000     0.100000000000     0.684050000000     0          
T        Si     0.402350000000     0.100000000000     0.548400000000     0          
T        Si     0.382600000000     0.100000000000     0.946550000000     0          
T        Si     0.275750000000     0.300000000000     0.321200000000     0          
T        Si     0.288500000000     0.300000000000     0.226450000000     0          
T        Si     0.361500000000     0.200000000000     0.149650000000     0          
T        Si     0.302700000000     0.200000000000     0.364100000000     0          
T        Si     0.321400000000     0.200000000000     0.213900000000     0          
T        Si     0.352650000000     0.200000000000     0.315950000000     0          
T        Si     0.347650000000     0.200000000000     0.451600000000     0          
T        Si     0.367400000000     0.200000000000     0.053450000000     0          
T        Si     0.224250000000     0.300000000000     0.178800000000     0          
T        Si     0.211500000000     0.300000000000     0.273550000000     0          
T        Si     0.138500000000     0.200000000000     0.350350000000     0          
T        Si     0.197300000000     0.200000000000     0.135900000000     0          
T        Si     0.178600000000     0.200000000000     0.286100000000     0          
T        Si     0.147350000000     0.200000000000     0.184050000000     0          
T        Si     0.152350000000     0.200000000000     0.048400000000     0          
T        Si     0.132600000000     0.200000000000     0.446550000000     0          
T        Si     0.025750000000     0.200000000000     0.321200000000     0          
T        Si     0.038500000000     0.200000000000     0.226450000000     0          
T        Si     0.111500000000     0.300000000000     0.149650000000     0          
T        Si     0.052700000000     0.300000000000     0.364100000000     0          
T        Si     0.071400000000     0.300000000000     0.213900000000     0          
T        Si     0.102650000000     0.300000000000     0.315950000000     0          
T        Si     0.097650000000     0.300000000000     0.451600000000     0          
T        Si     0.117400000000     0.300000000000     0.053450000000     0          
T        Si     0.474250000000     0.200000000000     0.178800000000     0          
T        Si     0.461500000000     0.200000000000     0.273550000000     0          
T        Si     0.388500000000     0.300000000000     0.350350000000     0          
T        Si     0.447300000000     0.300000000000     0.135900000000     0          
T        Si     0.428600000000     0.300000000000     0.286100000000     0          
T        Si     0.397350000000     0.300000000000     0.184050000000     0          
T        Si     0.402350000000     0.300000000000     0.048400000000     0          
T        Si     0.382600000000     0.300000000000     0.446550000000     0          
T        Si     0.275750000000     0.300000000000     0.821200000000     0          
T        Si     0.288500000000     0.300000000000     0.726450000000     0          
T        Si     0.361500000000     0.200000000000     0.649650000000     0          
T        Si     0.302700000000     0.200000000000     0.864100000000     0          
T        Si     0.321400000000     0.200000000000     0.713900000000     0          
T        Si     0.352650000000     0.200000000000     0.815950000000     0          
T        Si     0.347650000000     0.200000000000     0.951600000000     0          
T        Si     0.367400000000     0.200000000000     0.553450000000     0          
T        Si     0.224250000000     0.300000000000     0.678800000000     0          
T        Si     0.211500000000     0.300000000000     0.773550000000     0          
T        Si     0.138500000000     0.200000000000     0.850350000000     0          
T        Si     0.197300000000     0.200000000000     0.635900000000     0          
T        Si     0.178600000000     0.200000000000     0.786100000000     0          
T        Si     0.147350000000     0.200000000000     0.684050000000     0          
T        Si     0.152350000000     0.200000000000     0.548400000000     0          
T        Si     0.132600000000     0.200000000000     0.946550000000     0          
T        Si     0.025750000000     0.200000000000     0.821200000000     0          
T        Si     0.038500000000     0.200000000000     0.726450000000     0          
T        Si     0.111500000000     0.300000000000     0.649650000000     0          
T        Si     0.052700000000     0.300000000000     0.864100000000     0          
T        Si     0.071400000000     0.300000000000     0.713900000000     0          
T        Si     0.102650000000     0.300000000000     0.815950000000     0          
T        Si     0.097650000000     0.300000000000     0.951600000000     0          
T        Si     0.117400000000     0.300000000000     0.553450000000     0          
T        Si     0.474250000000     0.200000000000     0.678800000000     0          
T        Si     0.461500000000     0.200000000000     0.773550000000     0          
T        Si     0.388500000000     0.300000000000     0.850350000000     0          
T        Si     0.447300000000     0.300000000000     0.635900000000     0          
T        Si     0.428600000000     0.300000000000     0.786100000000     0          
T        Si     0.397350000000     0.300000000000     0.684050000000     0          
T        Si     0.402350000000     0.300000000000     0.548400000000     0          
T        Si     0.382600000000     0.300000000000     0.946550000000     0          
T        Si     0.275750000000     0.500000000000     0.321200000000     0          
T        Si     0.288500000000     0.500000000000     0.226450000000     0          
T        Si     0.361500000000     0.400000000000     0.149650000000     0          
T        Si     0.302700000000     0.400000000000     0.364100000000     0          
T        Si     0.321400000000     0.400000000000     0.213900000000     0          
T        Si     0.352650000000     0.400000000000     0.315950000000     0          
T        Si     0.347650000000     0.400000000000     0.451600000000     0          
T        Si     0.367400000000     0.400000000000     0.053450000000     0          
T        Si     0.224250000000     0.500000000000     0.178800000000     0          
T        Si     0.211500000000     0.500000000000     0.273550000000     0          
T        Si     0.138500000000     0.400000000000     0.350350000000     0          
T        Si     0.197300000000     0.400000000000     0.135900000000     0          
T        Si     0.178600000000     0.400000000000     0.286100000000     0          
T        Si     0.147350000000     0.400000000000     0.184050000000     0          
T        Si     0.152350000000     0.400000000000     0.048400000000     0          
T        Si     0.132600000000     0.400000000000     0.446550000000     0          
T        Si     0.025750000000     0.400000000000     0.321200000000     0          
T        Si     0.038500000000     0.400000000000     0.226450000000     0          
T        Si     0.111500000000     0.500000000000     0.149650000000     0          
T        Si     0.052700000000     0.500000000000     0.364100000000     0          
T        Si     0.071400000000     0.500000000000     0.213900000000     0          
T        Si     0.102650000000     0.500000000000     0.315950000000     0          
T        Si     0.097650000000     0.500000000000     0.451600000000     0          
T        Si     0.117400000000     0.500000000000     0.053450000000     0          
T        Si     0.474250000000     0.400000000000     0.178800000000     0          
T        Si     0.461500000000     0.400000000000     0.273550000000     0          
T        Si     0.388500000000     0.500000000000     0.350350000000     0          
T        Si     0.447300000000     0.500000000000     0.135900000000     0          
T        Si     0.428600000000     0.500000000000     0.286100000000     0          
T        Si     0.397350000000     0.500000000000     0.184050000000     0          
T        Si     0.402350000000     0.500000000000     0.048400000000     0          
T        Si     0.382600000000     0.500000000000     0.446550000000     0          
T        Si     0.275750000000     0.500000000000     0.821200000000     0          
T        Si     0.288500000000     0.500000000000     0.726450000000     0          
T        Si     0.361500000000     0.400000000000     0.649650000000     0          
T        Si     0.302700000000     0.400000000000     0.864100000000     0          
T        Si     0.321400000000     0.400000000000     0.713900000000     0          
T        Si     0.352650000000     0.400000000000     0.815950000000     0          
T        Si     0.347650000000     0.400000000000     0.951600000000     0          
T        Si     0.367400000000     0.400000000000     0.553450000000     0          
T        Si     0.224250000000     0.500000000000     0.678800000000     0          
T        Si     0.211500000000     0.500000000000     0.773550000000     0          
T        Si     0.138500000000     0.400000000000     0.850350000000     0          
T        Si     0.197300000000     0.400000000000     0.635900000000     0          
T        Si     0.178600000000     0.400000000000     0.786100000000     0          
T        Si     0.147350000000     0.400000000000     0.684050000000     0          
T        Si     0.152350000000     0.400000000000     0.548400000000     0          
T        Si     0.132600000000     0.400000000000     0.946550000000     0          
T        Si     0.025750000000     0.400000000000     0.821200000000     0          
T        Si     0.038500000000     0.400000000000     0.726450000000     0          
T        Si     0.111500000000     0.500000000000     0.649650000000     0          
T        Si     0.052700000000     0.500000000000     0.864100000000     0          
T        Si     0.071400000000     0.500000000000     0.713900000000     0          
T        Si     0.102650000000     0.500000000000     0.815950000000     0          
T        Si     0.097650000000     0.500000000000     0.951600000000     0          
T        Si     0.117400000000     0.500000000000     0.553450000000     0          
T        Si     0.474250000000     0.400000000000     0.678800000000     0          
T        Si     0.461500000000     0.400000000000     0.773550000000     0          
T        Si     0.388500000000     0.500000000000     0.850350000000     0          
T        Si     0.447300000000     0.500000000000     0.635900000000     0          
T        Si     0.428600000000     0.500000000000     0.786100000000     0          
T        Si     0.397350000000     0.500000000000     0.684050000000     0          
T        Si     0.402350000000     0.500000000000     0.548400000000     0          
T        Si     0.382600000000     0.500000000000     0.946550000000     0          
T        Si     0.275750000000     0.700000000000     0.321200000000     0          
T        Si     0.288500000000     0.700000000000     0.226450000000     0          
T        Si     0.361500000000     0.600000000000     0.149650000000     0          
T        Si     0.302700000000     0.600000000000     0.364100000000     0          
T        Si     0.321400000000     0.600000000000     0.213900000000     0          
T        Si     0.352650000000     0.600000000000     0.315950000000     0          
T        Si     0.347650000000     0.600000000000     0.451600000000     0          
T        Si     0.367400000000     0.600000000000     0.053450000000     0          
T        Si     0.224250000000     0.700000000000     0.178800000000     0          
T        Si     0.211500000000     0.700000000000     0.273550000000     0          
T        Si     0.138500000000     0.600000000000     0.350350000000     0          
T        Si     0.197300000000     0.600000000000     0.135900000000     0          
T        Si     0.178600000000     0.600000000000     0.286100000000     0          
T        Si     0.147350000000     0.600000000000     0.184050000000     0          
T        Si     0.152350000000     0.600000000000     0.048400000000     0          
T        Si     0.132600000000     0.600000000000     0.446550000000     0          
T        Si     0.025750000000     0.600000000000     0.321200000000     0          
T        Si     0.038500000000     0.600000000000     0.226450000000     0          
T        Si     0.111500000000     0.700000000000     0.149650000000     0          
T        Si     0.052700000000     0.700000000000     0.364100000000     0          
T        Si     0.071400000000     0.700000000000     0.213900000000     0          
T        Si     0.102650000000     0.700000000000     0.315950000000     0          
T        Si     0.097650000000     0.700000000000     0.451600000000     0          
T        Si     0.117400000000     0.700000000000     0.053450000000     0          
T        Si     0.474250000000     0.600000000000     0.178800000000     0          
T        Si     0.461500000000     0.600000000000     0.273550000000     0          
T        Si     0.388500000000     0.700000000000     0.350350000000     0          
T        Si     0.447300000000     0.700000000000     0.135900000000     0          
T        Si     0.428600000000     0.700000000000     0.286100000000     0          
T        Si     0.397350000000     0.700000000000     0.184050000000     0          
T        Si     0.402350000000     0.700000000000     0.048400000000     0          
T        Si     0.382600000000     0.700000000000     0.446550000000     0          
T        Si     0.275750000000     0.700000000000     0.821200000000     0          
T        Si     0.288500000000     0.700000000000     0.726450000000     0          
T        Si     0.361500000000     0.600000000000     0.649650000000     0          
T        Si     0.302700000000     0.600000000000     0.864100000000     0          
T        Si     0.321400000000     0.600000000000     0.713900000000     0          
T        Si     0.352650000000     0.600000000000     0.815950000000     0          
T        Si     0.347650000000     0.600000000000     0.951600000000     0          
T        Si     0.367400000000     0.600000000000     0.553450000000     0          
T        Si     0.224250000000     0.700000000000     0.678800000000     0          
T        Si     0.211500000000     0.700000000000     0.773550000000     0          
T        Si     0.138500000000     0.600000000000     0.850350000000     0          
T        Si     0.197300000000     0.600000000000     0.635900000000     0          
T        Si     0.178600000000     0.600000000000     0.786100000000     0          
T        Si     0.147350000000     0.600000000000     0.684050000000     0          
T        Si     0.152350000000     0.600000000000     0.548400000000     0          
T        Si     0.132600000000     0.600000000000     0.946550000000     0          
T        Si     0.025750000000     0.600000000000     0.821200000000     0          
T        Si     0.038500000000     0.600000000000     0.726450000000     0          
T        Si     0.111500000000     0.700000000000     0.649650000000     0          
T        Si     0.052700000000     0.700000000000     0.864100000000     0          
T        Si     0.071400000000     0.700000000000     0.713900000000     0          
T        Si     0.102650000000     0.700000000000     0.815950000000     0          
T        Si     0.097650000000     0.700000000000     0.951600000000     0          
T        Si     0.117400000000     0.700000000000     0.553450000000     0          
T        Si     0.474250000000     0.600000000000     0.678800000000     0          
T        Si     0.461500000000     0.600000000000     0.773550000000     0          
T        Si     0.388500000000     0.700000000000     0.850350000000     0          
T        Si     0.447300000000     0.700000000000     0.635900000000     0          
T        Si     0.428600000000     0.700000000000     0.786100000000     0          
T        Si     0.397350000000     0.700000000000     0.684050000000     0          
T        Si     0.402350000000     0.700000000000     0.548400000000     0          
T        Si     0.382600000000     0.700000000000     0.946550000000     0          
T        Si     0.275750000000     0.900000000000     0.321200000000     0          
T        Si     0.288500000000     0.900000000000     0.226450000000     0          
T        Si     0.361500000000     0.800000000000     0.149650000000     0          
T        Si     0.302700000000     0.800000000000     0.364100000000     0          
T        Si     0.321400000000     0.800000000000     0.213900000000     0          
T        Si     0.352650000000     0.800000000000     0.315950000000     0          
T        Si     0.347650000000     0.800000000000     0.451600000000     0          
T        Si     0.367400000000     0.800000000000     0.053450000000     0          
T        Si     0.224250000000     0.900000000000     0.178800000000     0          
T        Si     0.211500000000     0.900000000000     0.273550000000     0          
T        Si     0.138500000000     0.800000000000     0.350350000000     0          
T        Si     0.197300000000     0.800000000000     0.135900000000     0          
T        Si     0.178600000000     0.800000000000     0.286100000000     0          
T        Si     0.147350000000     0.800000000000     0.184050000000     0          
T        Si     0.152350000000     0.800000000000     0.048400000000     0          
T        Si     0.132600000000     0.800000000000     0.446550000000     0          
T        Si     0.025750000000     0.800000000000     0.321200000000     0          
T        Si     0.038500000000     0.800000000000     0.226450000000     0          
T        Si     0.111500000000     0.900000000000     0.149650000000     0          
T        Si     0.052700000000     0.900000000000     0.364100000000     0          
T        Si     0.071400000000     0.900000000000     0.213900000000     0          
T        Si     0.102650000000     0.900000000000     0.315950000000     0          
T        Si     0.097650000000     0.900000000000     0.451600000000     0          
T        Si     0.117400000000     0.900000000000     0.053450000000     0          
T        Si     0.474250000000     0.800000000000     0.178800000000     0          
T        Si     0.461500000000     0.800000000000     0.273550000000     0          
T        Si     0.388500000000     0.900000000000     0.350350000000     0          
T        Si     0.447300000000     0.900000000000     0.135900000000     0          
T        Si     0.428600000000     0.900000000000     0.286100000000     0          
T        Si     0.397350000000     0.900000000000     0.184050000000     0          
T        Si     0.402350000000     0.900000000000     0.048400000000     0          
T        Si     0.382600000000     0.900000000000     0.446550000000     0          
T        Si     0.275750000000     0.900000000000     0.821200000000     0          
T        Si     0.288500000000     0.900000000000     0.726450000000     0          
T        Si     0.361500000000     0.800000000000     0.649650000000     0          
T        Si     0.302700000000     0.800000000000     0.864100000000     0          
T        Si     0.321400000000     0.800000000000     0.713900000000     0          
T        Si     0.352650000000     0.800000000000     0.815950000000     0          
T        Si     0.347650000000     0.800000000000     0.951600000000     0          
T        Si     0.367400000000     0.800000000000     0.553450000000     0          
T        Si     0.224250000000     0.900000000000     0.678800000000     0          
T        Si     0.211500000000     0.900000000000     0.773550000000     0          
T        Si     0.138500000000     0.800000000000     0.850350000000     0          
T        Si     0.197300000000     0.800000000000     0.635900000000     0          
T        Si     0.178600000000     0.800000000000     0.786100000000     0          
T        Si     0.147350000000     0.800000000000     0.684050000000     0          
T        Si     0.152350000000     0.800000000000     0.548400000000     0          
T        Si     0.132600000000     0.800000000000     0.946550000000     0          
T        Si     0.025750000000     0.800000000000     0.821200000000     0          
T        Si     0.038500000000     0.800000000000     0.726450000000     0          
T        Si     0.111500000000     0.900000000000     0.649650000000     0          
T        Si     0.052700000000     0.900000000000     0.864100000000     0          
T        Si     0.071400000000     0.900000000000     0.713900000000     0          
T        Si     0.102650000000     0.900000000000     0.815950000000     0          
T        Si     0.097650000000     0.900000000000     0.951600000000     0          
T        Si     0.117400000000     0.900000000000     0.553450000000     0          
T        Si     0.474250000000     0.800000000000     0.678800000000     0          
T        Si     0.461500000000     0.800000000000     0.773550000000     0          
T        Si     0.388500000000     0.900000000000     0.850350000000     0          
T        Si     0.447300000000     0.900000000000     0.635900000000     0          
T        Si     0.428600000000     0.900000000000     0.786100000000     0          
T        Si     0.397350000000     0.900000000000     0.684050000000     0          
T        Si     0.402350000000     0.900000000000     0.548400000000     0          
T        Si     0.382600000000     0.900000000000     0.946550000000     0          
T        Si     0.775750000000     0.100000000000     0.321200000000     0          
T        Si     0.788500000000     0.100000000000     0.226450000000     0          
T        Si     0.861500000000     0.000000000000     0.149650000000     0          
T        Si     0.802700000000     0.000000000000     0.364100000000     0          
T        Si     0.821400000000     0.000000000000     0.213900000000     0          
T        Si     0.852650000000     0.000000000000     0.315950000000     0          
T        Si     0.847650000000     0.000000000000     0.451600000000     0          
T        Si     0.867400000000     0.000000000000     0.053450000000     0          
T        Si     0.724250000000     0.100000000000     0.178800000000     0          
T        Si     0.711500000000     0.100000000000     0.273550000000     0          
T        Si     0.638500000000     0.000000000000     0.350350000000     0          
T        Si     0.697300000000     0.000000000000     0.135900000000     0          
T        Si     0.678600000000     0.000000000000     0.286100000000     0          
T        Si     0.647350000000     0.000000000000     0.184050000000     0          
T        Si     0.652350000000     0.000000000000     0.048400000000     0          
T        Si     0.632600000000     0.000000000000     0.446550000000     0          
T        Si     0.525750000000     0.000000000000     0.321200000000     0          
T        Si     0.538500000000     0.000000000000     0.226450000000     0          
T        Si     0.611500000000     0.100000000000     0.149650000000     0          
T        Si     0.552700000000     0.100000000000     0.364100000000     0          
T        Si     0.571400000000     0.100000000000     0.213900000000     0          
T        Si     0.602650000000     0.100000000000     0.315950000000     0          
T        Si     0.597650000000     0.100000000000     0.451600000000     0          
T        Si     0.617400000000     0.100000000000     0.053450000000     0          
T        Si     0.974250000000     0.000000000000     0.178800000000     0          
T        Si     0.961500000000     0.000000000000     0.273550000000     0          
T        Si     0.888500000000     0.100000000000     0.350350000000     0          
T        Si     0.947300000000     0.100000000000     0.135900000000     0          
T        Si     0.928600000000     0.100000000000     0.286100000000     0          
T        Si     0.897350000000     0.100000000000     0.184050000000     0          
T        Si     0.902350000000     0.100000000000     0.048400000000     0          
T        Si     0.882600000000     0.100000000000     0.446550000000     0          
T        Si     0.775750000000     0.100000000000     0.821200000000     0          
T        Si     0.788500000000     0.100000000000     0.726450000000     0          
T        Si     0.861500000000     0.000000000000     0.649650000000     0          
T        Si     0.802700000000     0.000000000000     0.864100000000     0          
T        Si     0.821400000000     0.000000000000     0.713900000000     0          
T        Si     0.852650000000     0.000000000000     0.815950000000     0          
T        Si     0.847650000000     0.000000000000     0.951600000000     0          
T        Si     0.867400000000     0.000000000000     0.553450000000     0          
T        Si     0.724250000000     0.100000000000     0.678800000000     0          
T        Si     0.711500000000     0.100000000000     0.773550000000     0          
T        Si     0.638500000000     0.000000000000     0.850350000000     0          
T        Si     0.697300000000     0.000000000000     0.635900000000     0          
T        Si     0.678600000000     0.000000000000     0.786100000000     0          
T        Si     0.647350000000     0.000000000000     0.684050000000     0          
T        Si     0.652350000000     0.000000000000     0.548400000000     0          
T        Si     0.632600000000     0.000000000000     0.946550000000     0          
T        Si     0.525750000000     0.000000000000     0.821200000000     0          
T        Si     0.538500000000     0.000000000000     0.726450000000     0          
T        Si     0.611500000000     0.100000000000     0.649650000000     0          
T        Si     0.552700000000     0.100000000000     0.864100000000     0          
T        Si     0.571400000000     0.100000000000     0.713900000000     0          
T        Si     0.602650000000     0.100000000000     0.815950000000     0          
T        Si     0.597650000000     0.100000000000     0.951600000000     0          
T        Si     0.617400000000     0.100000000000     0.553450000000     0          
T        Si     0.974250000000     0.000000000000     0.678800000000     0          
T        Si     0.961500000000     0.000000000000     0.773550000000     0          
T        Si     0.888500000000     0.100000000000     0.850350000000     0          
T        Si     0.947300000000     0.100000000000     0.635900000000     0          
T        Si     0.928600000000     0.100000000000     0.786100000000     0          
T        Si     0.897350000000     0.100000000000     0.684050000000     0          
T        Si     0.902350000000     0.100000000000     0.548400000000     0          
T        Si     0.882600000000     0.100000000000     0.946550000000     0          
T        Si     0.775750000000     0.300000000000     0.321200000000     0          
T        Si     0.788500000000     0.300000000000     0.226450000000     0          
T        Si     0.861500000000     0.200000000000     0.149650000000     0          
T        Si     0.802700000000     0.200000000000     0.364100000000     0          
T        Si     0.821400000000     0.200000000000     0.213900000000     0          
T        Si     0.852650000000     0.200000000000     0.315950000000     0          
T        Si     0.847650000000     0.200000000000     0.451600000000     0          
T        Si     0.867400000000     0.200000000000     0.053450000000     0          
T        Si     0.724250000000     0.300000000000     0.178800000000     0          
T        Si     0.711500000000     0.300000000000     0.273550000000     0          
T        Si     0.638500000000     0.200000000000     0.350350000000     0          
T        Si     0.697300000000     0.200000000000     0.135900000000     0          
T        Si     0.678600000000     0.200000000000     0.286100000000     0          
T        Si     0.647350000000     0.200000000000     0.184050000000     0          
T        Si     0.652350000000     0.200000000000     0.048400000000     0          
T        Si     0.632600000000     0.200000000000     0.446550000000     0          
T        Si     0.525750000000     0.200000000000     0.321200000000     0          
T        Si     0.538500000000     0.200000000000     0.226450000000     0          
T        Si     0.611500000000     0.300000000000     0.149650000000     0          
T        Si     0.552700000000     0.300000000000     0.364100000000     0          
T        Si     0.571400000000     0.300000000000     0.213900000000     0          
T        Si     0.602650000000     0.300000000000     0.315950000000     0          
T        Si     0.597650000000     0.300000000000     0.451600000000     0          
T        Si     0.617400000000     0.300000000000     0.053450000000     0          
T        Si     0.974250000000     0.200000000000     0.178800000000     0          
T        Si     0.961500000000     0.200000000000     0.273550000000     0          
T        Si     0.888500000000     0.300000000000     0.350350000000     0          
T        Si     0.947300000000     0.300000000000     0.135900000000     0          
T        Si     0.928600000000     0.300000000000     0.286100000000     0          
T        Si     0.897350000000     0.300000000000     0.184050000000     0          
T        Si     0.902350000000     0.300000000000     0.048400000000     0          
T        Si     0.882600000000     0.300000000000     0.446550000000     0          
T        Si     0.775750000000     0.300000000000     0.821200000000     0          
T        Si     0.788500000000     0.300000000000     0.726450000000     0          
T        Si     0.861500000000     0.200000000000     0.649650000000     0          
T        Si     0.802700000000     0.200000000000     0.864100000000     0          
T        Si     0.821400000000     0.200000000000     0.713900000000     0          
T        Si     0.852650000000     0.200000000000     0.815950000000     0          
T        Si     0.847650000000     0.200000000000     0.951600000000     0          
T        Si     0.867400000000     0.200000000000     0.553450000000     0          
T        Si     0.724250000000     0.300000000000     0.678800000000     0          
T        Si     0.711500000000     0.300000000000     0.773550000000     0          
T        Si     0.638500000000     0.200000000000     0.850350000000     0          
T        Si     0.697300000000     0.200000000000     0.635900000000     0          
T        Si     0.678600000000     0.200000000000     0.786100000000     0          
T        Si     0.647350000000     0.200000000000     0.684050000000     0          
T        Si     0.652350000000     0.200000000000     0.548400000000     0          
T        Si     0.632600000000     0.200000000000     0.946550000000     0          
T        Si     0.525750000000     0.200000000000     0.821200000000     0          
T        Si     0.538500000000     0.200000000000     0.726450000000     0          
T        Si     0.611500000000     0.300000000000     0.649650000000     0          
T        Si     0.552700000000     0.300000000000     0.864100000000     0          
T        Si     0.571400000000     0.300000000000     0.713900000000     0          
T        Si     0.602650000000     0.300000000000     0.815950000000     0          
T        Si     0.597650000000     0.300000000000     0.951600000000     0          
T        Si     0.617400000000     0.300000000000     0.553450000000     0          
T        Si     0.974250000000     0.200000000000     0.678800000000     0          
T        Si     0.961500000000     0.200000000000     0.773550000000     0          
T        Si     0.888500000000     0.300000000000     0.850350000000     0          
T        Si     0.947300000000     0.300000000000     0.635900000000     0          
T        Si     0.928600000000     0.300000000000     0.786100000000     0          
T        Si     0.897350000000     0.300000000000     0.684050000000     0          
T        Si     0.902350000000     0.300000000000     0.548400000000     0          
T        Si     0.882600000000     0.300000000000     0.946550000000     0          
T        Si     0.775750000000     0.500000000000     0.321200000000     0          
T        Si     0.788500000000     0.500000000000     0.226450000000     0          
T        Si     0.861500000000     0.400000000000     0.149650000000     0          
T        Si     0.802700000000     0.400000000000     0.364100000000     0          
T        Si     0.821400000000     0.400000000000     0.213900000000     0          
T        Si     0.852650000000     0.400000000000     0.315950000000     0          
T        Si     0.847650000000     0.400000000000     0.451600000000     0          
T        Si     0.867400000000     0.400000000000     0.053450000000     0          
T        Si     0.724250000000     0.500000000000     0.178800000000     0          
T        Si     0.711500000000     0.500000000000     0.273550000000     0          
T        Si     0.638500000000     0.400000000000     0.350350000000     0          
T        Si     0.697300000000     0.400000000000     0.135900000000     0          
T        Si     0.678600000000     0.400000000000     0.286100000000     0          
T        Si     0.647350000000     0.400000000000     0.184050000000     0          
T        Si     0.652350000000     0.400000000000     0.048400000000     0          
T        Si     0.632600000000     0.400000000000     0.446550000000     0          
T        Si     0.525750000000     0.400000000000     0.321200000000     0          
T        Si     0.538500000000     0.400000000000     0.226450000000     0          
T        Si     0.611500000000     0.500000000000     0.149650000000     0          
T        Si     0.552700000000     0.500000000000     0.364100000000     0          
T        Si     0.571400000000     0.500000000000     0.213900000000     0          
T        Si     0.602650000000     0.500000000000     0.315950000000     0          
T        Si     0.597650000000     0.500000000000     0.451600000000     0          
T        Si     0.617400000000     0.500000000000     0.053450000000     0          
T        Si     0.974250000000     0.400000000000     0.178800000000     0          
T        Si     0.961500000000     0.400000000000     0.273550000000     0          
T        Si     0.888500000000     0.500000000000     0.350350000000     0          
T        Si     0.947300000000     0.500000000000     0.135900000000     0          
T        Si     0.928600000000     0.500000000000     0.286100000000     0          
T        Si     0.897350000000     0.500000000000     0.184050000000     0          
T        Si     0.902350000000     0.500000000000     0.048400000000     0          
T        Si     0.882600000000     0.500000000000     0.446550000000     0          
T        Si     0.775750000000     0.500000000000     0.821200000000     0          
T        Si     0.788500000000     0.500000000000     0.726450000000     0          
T        Si     0.861500000000     0.400000000000     0.649650000000     0          
T        Si     0.802700000000     0.400000000000     0.864100000000     0          
T        Si     0.821400000000     0.400000000000     0.713900000000     0          
T        Si     0.852650000000     0.400000000000     0.815950000000     0          
T        Si     0.847650000000     0.400000000000     0.951600000000     0          
T        Si     0.867400000000     0.400000000000     0.553450000000     0          
T        Si     0.724250000000     0.500000000000     0.678800000000     0          
T        Si     0.711500000000     0.500000000000     0.773550000000     0          
T        Si     0.638500000000     0.400000000000     0.850350000000     0          
T        Si     0.697300000000     0.400000000000     0.635900000000     0          
T        Si     0.678600000000     0.400000000000     0.786100000000     0          
T        Si     0.647350000000     0.400000000000     0.684050000000     0          
T        Si     0.652350000000     0.400000000000     0.548400000000     0          
T        Si     0.632600000000     0.400000000000     0.946550000000     0          
T        Si     0.525750000000     0.400000000000     0.821200000000     0          
T        Si     0.538500000000     0.400000000000     0.726450000000     0          
T        Si     0.611500000000     0.500000000000     0.649650000000     0          
T        Si     0.552700000000     0.500000000000     0.864100000000     0          
T        Si     0.571400000000     0.500000000000     0.713900000000     0          
T        Si     0.602650000000     0.500000000000     0.815950000000     0          
T        Si     0.597650000000     0.500000000000     0.951600000000     0          
T        Si     0.617400000000     0.500000000000     0.553450000000     0          
T        Si     0.974250000000     0.400000000000     0.678800000000     0          
T        Si     0.961500000000     0.400000000000     0.773550000000     0          
T        Si     0.888500000000     0.500000000000     0.850350000000     0          
T        Si     0.947300000000     0.500000000000     0.635900000000     0          
T        Si     0.928600000000     0.500000000000     0.786100000000     0          
T        Si     0.897350000000     0.500000000000     0.684050000000     0          
T        Si     0.902350000000     0.500000000000     0.548400000000     0          
T        Si     0.882600000000     0.500000000000     0.946550000000     0          
T        Si     0.775750000000     0.700000000000     0.321200000000     0          
T        Si     0.788500000000     0.700000000000     0.226450000000     0          
T        Si     0.861500000000     0.600000000000     0.149650000000     0          
T        Si     0.802700000000     0.600000000000     0.364100000000     0          
T        Si     0.821400000000     0.600000000000     0.213900000000     0          
T        Si     0.852650000000     0.600000000000     0.315950000000     0          
T        Si     0.847650000000     0.600000000000     0.451600000000     0          
T        Si     0.867400000000     0.600000000000     0.053450000000     0          
T        Si     0.724250000000     0.700000000000     0.178800000000     0          
T        Si     0.711500000000     0.700000000000     0.273550000000     0          
T        Si     0.638500000000     0.600000000000     0.350350000000     0          
T        Si     0.697300000000     0.600000000000     0.135900000000     0          
T        Si     0.678600000000     0.600000000000     0.286100000000     0          
T        Si     0.647350000000     0.600000000000     0.184050000000     0          
T        Si     0.652350000000     0.600000000000     0.048400000000     0          
T        Si     0.632600000000     0.600000000000     0.446550000000     0          
T        Si     0.525750000000     0.600000000000     0.321200000000     0          
T        Si     0.538500000000     0.600000000000     0.226450000000     0          
T        Si     0.611500000000     0.700000000000     0.149650000000     0          
T        Si     0.552700000000     0.700000000000     0.364100000000     0          
T        Si     0.571400000000     0.700000000000     0.213900000000     0          
T        Si     0.602650000000     0.700000000000     0.315950000000     0          
T        Si     0.597650000000     0.700000000000     0.451600000000     0          
T        Si     0.617400000000     0.700000000000     0.053450000000     0          
T        Si     0.974250000000     0.600000000000     0.178800000000     0          
T        Si     0.961500000000     0.600000000000     0.273550000000     0          
T        Si     0.888500000000     0.700000000000     0.350350000000     0          
T        Si     0.947300000000     0.700000000000     0.135900000000     0          
T        Si     0.928600000000     0.700000000000     0.286100000000     0          
T        Si     0.897350000000     0.700000000000     0.184050000000     0          
T        Si     0.902350000000     0.700000000000     0.048400000000     0          
T        Si     0.882600000000     0.700000000000     0.446550000000     0          
T        Si     0.775750000000     0.700000000000     0.821200000000     0          
T        Si     0.788500000000     0.700000000000     0.726450000000     0          
T        Si     0.861500000000     0.600000000000     0.649650000000     0          
T        Si     0.802700000000     0.600000000000     0.864100000000     0          
T        Si     0.821400000000     0.600000000000     0.713900000000     0          
T        Si     0.852650000000     0.600000000000     0.815950000000     0          
T        Si     0.847650000000     0.600000000000     0.951600000000     0          
T        Si     0.867400000000     0.600000000000     0.553450000000     0          
T        Si     0.724250000000     0.700000000000     0.678800000000     0          
T        Si     0.711500000000     0.700000000000     0.773550000000     0          
T        Si     0.638500000000     0.600000000000     0.850350000000     0          
T        Si     0.697300000000     0.600000000000     0.635900000000     0          
T        Si     0.678600000000     0.600000000000     0.786100000000     0          
T        Si     0.647350000000     0.600000000000     0.684050000000     0          
T        Si     0.652350000000     0.600000000000     0.548400000000     0          
T        Si     0.632600000000     0.600000000000     0.946550000000     0          
T        Si     0.525750000000     0.600000000000     0.821200000000     0          
T        Si     0.538500000000     0.600000000000     0.726450000000     0          
T        Si     0.611500000000     0.700000000000     0.649650000000     0          
T        Si     0.552700000000     0.700000000000     0.864100000000     0          
T        Si     0.571400000000     0.700000000000     0.713900000000     0          
T        Si     0.602650000000     0.700000000000     0.815950000000     0          
T        Si     0.597650000000     0.700000000000     0.951600000000     0          
T        Si     0.617400000000     0.700000000000     0.553450000000     0          
T        Si     0.974250000000     0.600000000000     0.678800000000     0          
T        Si     0.961500000000     0.600000000000     0.773550000000     0          
T        Si     0.888500000000     0.700000000000     0.850350000000     0          
T        Si     0.947300000000     0.700000000000     0.635900000000     0          
T        Si     0.928600000000     0.700000000000     0.786100000000     0          
T        Si     0.897350000000     0.700000000000     0.684050000000     0          
T        Si     0.902350000000     0.700000000000     0.548400000000     0          
T        Si     0.882600000000     0.700000000000     0.946550000000     0          
T        Si     0.775750000000     0.900000000000     0.321200000000     0          
T        Si     0.788500000000     0.900000000000     0.226450000000     0          
T        Si     0.861500000000     0.800000000000     0.149650000000     0          
T        Si     0.802700000000     0.800000000000     0.364100000000     0          
T        Si     0.821400000000     0.800000000000     0.213900000000     0          
T        Si     0.852650000000     0.800000000000     0.315950000000     0          
T        Si     0.847650000000     0.800000000000     0.451600000000     0          
T        Si     0.867400000000     0.800000000000     0.053450000000     0          
T        Si     0.724250000000     0.900000000000     0.178800000000     0          
T        Si     0.711500000000     0.900000000000     0.273550000000     0          
T        Si     0.638500000000     0.800000000000     0.350350000000     0          
T        Si     0.697300000000     0.800000000000     0.135900000000     0          
T        Si     0.678600000000     0.800000000000     0.286100000000     0          
T        Si     0.647350000000     0.800000000000     0.184050000000     0          
T        Si     0.652350000000     0.800000000000     0.048400000000     0          
T        Si     0.632600000000     0.800000000000     0.446550000000     0          
T        Si     0.525750000000     0.800000000000     0.321200000000     0          
T        Si     0.538500000000     0.800000000000     0.226450000000     0          
T        Si     0.611500000000     0.900000000000     0.149650000000     0          
T        Si     0.552700000000     0.900000000000     0.364100000000     0          
T        Si     0.571400000000     0.900000000000     0.213900000000     0          
T        Si     0.602650000000     0.900000000000     0.315950000000     0          
T        Si     0.597650000000     0.900000000000     0.451600000000     0          
T        Si     0.617400000000     0.900000000000     0.053450000000     0          
T        Si     0.974250000000     0.800000000000     0.178800000000     0          
T        Si     0.961500000000     0.800000000000     0.273550000000     0          
T        Si     0.888500000000     0.900000000000     0.350350000000     0          
T        Si     0.947300000000     0.900000000000     0.135900000000     0          
T        Si     0.928600000000     0.900000000000     0.286100000000     0          
T        Si     0.897350000000     0.900000000000     0.184050000000     0          
T        Si     0.902350000000     0.900000000000     0.048400000000     0          
T        Si     0.882600000000     0.900000000000     0.446550000000     0          
T        Si     0.775750000000     0.900000000000     0.821200000000     0          
T        Si     0.788500000000     0.900000000000     0.726450000000     0          
T        Si     0.861500000000     0.800000000000     0.649650000000     0          
T        Si     0.802700000000     0.800000000000     0.864100000000     0          
T        Si     0.821400000000     0.800000000000     0.713900000000     0          
T        Si     0.852650000000     0.800000000000     0.815950000000     0          
T        Si     0.847650000000     0.800000000000     0.951600000000     0          
T        Si     0.867400000000     0.800000000000     0.553450000000     0          
T        Si     0.724250000000     0.900000000000     0.678800000000     0          
T        Si     0.711500000000     0.900000000000     0.773550000000     0          
T        Si     0.638500000000     0.800000000000     0.850350000000     0          
T        Si     0.697300000000     0.800000000000     0.635900000000     0          
T        Si     0.678600000000     0.800000000000     0.786100000000     0          
T        Si     0.647350000000     0.800000000000     0.684050000000     0          
T        Si     0.652350000000     0.800000000000     0.548400000000     0          
T        Si     0.632600000000     0.800000000000     0.946550000000     0          
T        Si     0.525750000000     0.800000000000     0.821200000000     0          
T        Si     0.538500000000     0.800000000000     0.726450000000     0          
T        Si     0.611500000000     0.900000000000     0.649650000000     0          
T        Si     0.552700000000     0.900000000000     0.864100000000     0          
T        Si     0.571400000000     0.900000000000     0.713900000000     0          
T        Si     0.602650000000     0.900000000000     0.815950000000     0          
T        Si     0.597650000000     0.900000000000     0.951600000000     0          
T        Si     0.617400000000     0.900000000000     0.553450000000     0          
T        Si     0.974250000000     0.800000000000     0.678800000000     0          
T        Si     0.961500000000     0.800000000000     0.773550000000     0          
T        Si     0.888500000000     0.900000000000     0.850350000000     0          
T        Si     0.947300000000     0.900000000000     0.635900000000     0          
T        Si     0.928600000000     0.900000000000     0.786100000000     0          
T        Si     0.897350000000     0.900000000000     0.684050000000     0          
T        Si     0.902350000000     0.900000000000     0.548400000000     0          
T        Si     0.882600000000     0.900000000000     0.946550000000     0          
O        O      0.243400000000     0.100000000000     0.298900000000     0          
O        O      0.283850000000     0.049980000000     0.352450000000     0          
O        O      0.292000000000     0.100000000000     0.281150000000     0          
O        O      0.302700000000     0.150000000000     0.211650000000     0          
O        O      0.335050000000     0.000000000000     0.170700000000     0          
O        O      0.379600000000     0.050000000000     0.166000000000     0          
O        O      0.351900000000     0.000000000000     0.094450000000     0          
O        O      0.317550000000     0.000000000000     0.417850000000     0          
O        O      0.325100000000     0.000000000000     0.334000000000     0          
O        O      0.344950000000     0.000000000000     0.260750000000     0          
O        O      0.345800000000     0.000000000000     0.004400000000     0          
O        O      0.363700000000     0.149980000000     0.441750000000     0          
O        O      0.256600000000     0.100000000000     0.201100000000     0          
O        O      0.216150000000     0.049980000000     0.147550000000     0          
O        O      0.208000000000     0.100000000000     0.218850000000     0          
O        O      0.197300000000     0.150000000000     0.288350000000     0          
O        O      0.164950000000     0.000000000000     0.329300000000     0          
O        O      0.120400000000     0.050000000000     0.334000000000     0          
O        O      0.148100000000     0.000000000000     0.405550000000     0          
O        O      0.182450000000     0.000000000000     0.082150000000     0          
O        O      0.174900000000     0.000000000000     0.166000000000     0          
O        O      0.155050000000     0.000000000000     0.239250000000     0          
O        O      0.154200000000     0.000000000000     0.495600000000     0          
O        O      0.136300000000     0.149980000000     0.058250000000     0          
O        O      0.216150000000     0.150020000000     0.147550000000     0          
O        O      0.197300000000     0.050000000000     0.288350000000     0          
O        O      0.120400000000     0.150000000000     0.334000000000     0          
O        O      0.136300000000     0.050020000000     0.058250000000     0          
O        O      0.283850000000     0.150020000000     0.352450000000     0          
O        O      0.302700000000     0.050000000000     0.211650000000     0          
O        O      0.379600000000     0.150000000000     0.166000000000     0          
O        O      0.363700000000     0.050020000000     0.441750000000     0          
O        O      0.493400000000     0.000000000000     0.298900000000     0          
O        O      0.033850000000     0.149980000000     0.352450000000     0          
O        O      0.042000000000     0.000000000000     0.281150000000     0          
O        O      0.052700000000     0.050000000000     0.211650000000     0          
O        O      0.085050000000     0.100000000000     0.170700000000     0          
O        O      0.129600000000     0.150000000000     0.166000000000     0          
O        O      0.101900000000     0.100000000000     0.094450000000     0          
O        O      0.067550000000     0.100000000000     0.417850000000     0          
O        O      0.075100000000     0.100000000000     0.334000000000     0          
O        O      0.094950000000     0.100000000000     0.260750000000     0          
O        O      0.095800000000     0.100000000000     0.004400000000     0          
O        O      0.113700000000     0.049980000000     0.441750000000     0          
O        O      0.006600000000     0.000000000000     0.201100000000     0          
O        O      0.466150000000     0.149980000000     0.147550000000     0          
O        O      0.458000000000     0.000000000000     0.218850000000     0          
O        O      0.447300000000     0.050000000000     0.288350000000     0          
O        O      0.414950000000     0.100000000000     0.329300000000     0          
O        O      0.370400000000     0.150000000000     0.334000000000     0          
O        O      0.398100000000     0.100000000000     0.405550000000     0          
O        O      0.432450000000     0.100000000000     0.082150000000     0          
O        O      0.424900000000     0.100000000000     0.166000000000     0          
O        O      0.405050000000     0.100000000000     0.239250000000     0          
O        O      0.404200000000     0.100000000000     0.495600000000     0          
O        O      0.386300000000     0.049980000000     0.058250000000     0          
O        O      0.466150000000     0.050020000000     0.147550000000     0          
O        O      0.447300000000     0.150000000000     0.288350000000     0          
O        O      0.370400000000     0.050000000000     0.334000000000     0          
O        O      0.386300000000     0.150020000000     0.058250000000     0          
O        O      0.033850000000     0.050020000000     0.352450000000     0          
O        O      0.052700000000     0.150000000000     0.211650000000     0          
O        O      0.129600000000     0.050000000000     0.166000000000     0          
O        O      0.113700000000     0.150020000000     0.441750000000     0          
O        O      0.243400000000     0.100000000000     0.798900000000     0          
O        O      0.283850000000     0.049980000000     0.852450000000     0          
O        O      0.292000000000     0.100000000000     0.781150000000     0          
O        O      0.302700000000     0.150000000000     0.711650000000     0          
O        O      0.335050000000     0.000000000000     0.670700000000     0          
O        O      0.379600000000     0.050000000000     0.666000000000     0          
O        O      0.351900000000     0.000000000000     0.594450000000     0          
O        O      0.317550000000     0.000000000000     0.917850000000     0          
O        O      0.325100000000     0.000000000000     0.834000000000     0          
O        O      0.344950000000     0.000000000000     0.760750000000     0          
O        O      0.345800000000     0.000000000000     0.504400000000     0          
O        O      0.363700000000     0.149980000000     0.941750000000     0          
O        O      0.256600000000     0.100000000000     0.701100000000     0          
O        O      0.216150000000     0.049980000000     0.647550000000     0          
O        O      0.208000000000     0.100000000000     0.718850000000     0          
O        O      0.197300000000     0.150000000000     0.788350000000     0          
O        O      0.164950000000     0.000000000000     0.829300000000     0          
O        O      0.120400000000     0.050000000000     0.834000000000     0          
O        O      0.148100000000     0.000000000000     0.905550000000     0          
O        O      0.182450000000     0.000000000000     0.582150000000     0          
O        O      0.174900000000     0.000000000000     0.666000000000     0          
O        O      0.155050000000     0.000000000000     0.739250000000     0          
O        O      0.154200000000     0.000000000000     0.995600000000     0          
O        O      0.136300000000     0.149980000000     0.558250000000     0          
O        O      0.216150000000     0.150020000000     0.647550000000     0          
O        O      0.197300000000     0.050000000000     0.788350000000     0          
O        O      0.120400000000     0.150000000000     0.834000000000     0          
O        O      0.136300000000     0.050020000000     0.558250000000     0          
O        O      0.283850000000     0.150020000000     0.852450000000     0          
O        O      0.302700000000     0.050000000000     0.711650000000     0          
O        O      0.379600000000     0.150000000000     0.666000000000     0          
O        O      0.363700000000     0.050020000000     0.941750000000     0          
O        O      0.493400000000     0.000000000000     0.798900000000     0          
O        O      0.033850000000     0.149980000000     0.852450000000     0          
O        O      0.042000000000     0.000000000000     0.781150000000     0          
O        O      0.052700000000     0.050000000000     0.711650000000     0          
O        O      0.085050000000     0.100000000000     0.670700000000     0          
O        O      0.129600000000     0.150000000000     0.666000000000     0          
O        O      0.101900000000     0.100000000000     0.594450000000     0          
O        O      0.067550000000     0.100000000000     0.917850000000     0          
O        O      0.075100000000     0.100000000000     0.834000000000     0          
O        O      0.094950000000     0.100000000000     0.760750000000     0          
O        O      0.095800000000     0.100000000000     0.504400000000     0          
O        O      0.113700000000     0.049980000000     0.941750000000     0          
O        O      0.006600000000     0.000000000000     0.701100000000     0          
O        O      0.466150000000     0.149980000000     0.647550000000     0          
O        O      0.458000000000     0.000000000000     0.718850000000     0          
O        O      0.447300000000     0.050000000000     0.788350000000     0          
O        O      0.414950000000     0.100000000000     0.829300000000     0          
O        O      0.370400000000     0.150000000000     0.834000000000     0          
O        O      0.398100000000     0.100000000000     0.905550000000     0          
O        O      0.432450000000     0.100000000000     0.582150000000     0          
O        O      0.424900000000     0.100000000000     0.666000000000     0          
O        O      0.405050000000     0.100000000000     0.739250000000     0          
O        O      0.404200000000     0.100000000000     0.995600000000     0          
O        O      0.386300000000     0.049980000000     0.558250000000     0          
O        O      0.466150000000     0.050020000000     0.647550000000     0          
O        O      0.447300000000     0.150000000000     0.788350000000     0          
O        O      0.370400000000     0.050000000000     0.834000000000     0          
O        O      0.386300000000     0.150020000000     0.558250000000     0          
O        O      0.033850000000     0.050020000000     0.852450000000     0          
O        O      0.052700000000     0.150000000000     0.711650000000     0          
O        O      0.129600000000     0.050000000000     0.666000000000     0          
O        O      0.113700000000     0.150020000000     0.941750000000     0          
O        O      0.243400000000     0.300000000000     0.298900000000     0          
O        O      0.283850000000     0.249980000000     0.352450000000     0          
O        O      0.292000000000     0.300000000000     0.281150000000     0          
O        O      0.302700000000     0.350000000000     0.211650000000     0          
O        O      0.335050000000     0.200000000000     0.170700000000     0          
O        O      0.379600000000     0.250000000000     0.166000000000     0          
O        O      0.351900000000     0.200000000000     0.094450000000     0          
O        O      0.317550000000     0.200000000000     0.417850000000     0          
O        O      0.325100000000     0.200000000000     0.334000000000     0          
O        O      0.344950000000     0.200000000000     0.260750000000     0          
O        O      0.345800000000     0.200000000000     0.004400000000     0          
O        O      0.363700000000     0.349980000000     0.441750000000     0          
O        O      0.256600000000     0.300000000000     0.201100000000     0          
O        O      0.216150000000     0.249980000000     0.147550000000     0          
O        O      0.208000000000     0.300000000000     0.218850000000     0          
O        O      0.197300000000     0.350000000000     0.288350000000     0          
O        O      0.164950000000     0.200000000000     0.329300000000     0          
O        O      0.120400000000     0.250000000000     0.334000000000     0          
O        O      0.148100000000     0.200000000000     0.405550000000     0          
O        O      0.182450000000     0.200000000000     0.082150000000     0          
O        O      0.174900000000     0.200000000000     0.166000000000     0          
O        O      0.155050000000     0.200000000000     0.239250000000     0          
O        O      0.154200000000     0.200000000000     0.495600000000     0          
O        O      0.136300000000     0.349980000000     0.058250000000     0          
O        O      0.216150000000     0.350020000000     0.147550000000     0          
O        O      0.197300000000     0.250000000000     0.288350000000     0          
O        O      0.120400000000     0.350000000000     0.334000000000     0          
O        O      0.136300000000     0.250020000000     0.058250000000     0          
O        O      0.283850000000     0.350020000000     0.352450000000     0          
O        O      0.302700000000     0.250000000000     0.211650000000     0          
O        O      0.379600000000     0.350000000000     0.166000000000     0          
O        O      0.363700000000     0.250020000000     0.441750000000     0          
O        O      0.493400000000     0.200000000000     0.298900000000     0          
O        O      0.033850000000     0.349980000000     0.352450000000     0          
O        O      0.042000000000     0.200000000000     0.281150000000     0          
O        O      0.052700000000     0.250000000000     0.211650000000     0          
O        O      0.085050000000     0.300000000000     0.170700000000     0          
O        O      0.129600000000     0.350000000000     0.166000000000     0          
O        O      0.101900000000     0.300000000000     0.094450000000     0          
O        O      0.067550000000     0.300000000000     0.417850000000     0          
O        O      0.075100000000     0.300000000000     0.334000000000     0          
O        O      0.094950000000     0.300000000000     0.260750000000     0          
O        O      0.095800000000     0.300000000000     0.004400000000     0          
O        O      0.113700000000     0.249980000000     0.441750000000     0          
O        O      0.006600000000     0.200000000000     0.201100000000     0          
O        O      0.466150000000     0.349980000000     0.147550000000     0          
O        O      0.458000000000     0.200000000000     0.218850000000     0          
O        O      0.447300000000     0.250000000000     0.288350000000     0          
O        O      0.414950000000     0.300000000000     0.329300000000     0          
O        O      0.370400000000     0.350000000000     0.334000000000     0          
O        O      0.398100000000     0.300000000000     0.405550000000     0          
O        O      0.432450000000     0.300000000000     0.082150000000     0          
O        O      0.424900000000     0.300000000000     0.166000000000     0          
O        O      0.405050000000     0.300000000000     0.239250000000     0          
O        O      0.404200000000     0.300000000000     0.495600000000     0          
O        O      0.386300000000     0.249980000000     0.058250000000     0          
O        O      0.466150000000     0.250020000000     0.147550000000     0          
O        O      0.447300000000     0.350000000000     0.288350000000     0          
O        O      0.370400000000     0.250000000000     0.334000000000     0          
O        O      0.386300000000     0.350020000000     0.058250000000     0          
O        O      0.033850000000     0.250020000000     0.352450000000     0          
O        O      0.052700000000     0.350000000000     0.211650000000     0          
O        O      0.129600000000     0.250000000000     0.166000000000     0          
O        O      0.113700000000     0.350020000000     0.441750000000     0          
O        O      0.243400000000     0.300000000000     0.798900000000     0          
O        O      0.283850000000     0.249980000000     0.852450000000     0          
O        O      0.292000000000     0.300000000000     0.781150000000     0          
O        O      0.302700000000     0.350000000000     0.711650000000     0          
O        O      0.335050000000     0.200000000000     0.670700000000     0          
O        O      0.379600000000     0.250000000000     0.666000000000     0          
O        O      0.351900000000     0.200000000000     0.594450000000     0          
O        O      0.317550000000     0.200000000000     0.917850000000     0          
O        O      0.325100000000     0.200000000000     0.834000000000     0          
O        O      0.344950000000     0.200000000000     0.760750000000     0          
O        O      0.345800000000     0.200000000000     0.504400000000     0          
O        O      0.363700000000     0.349980000000     0.941750000000     0          
O        O      0.256600000000     0.300000000000     0.701100000000     0          
O        O      0.216150000000     0.249980000000     0.647550000000     0          
O        O      0.208000000000     0.300000000000     0.718850000000     0          
O        O      0.197300000000     0.350000000000     0.788350000000     0          
O        O      0.164950000000     0.200000000000     0.829300000000     0          
O        O      0.120400000000     0.250000000000     0.834000000000     0          
O        O      0.148100000000     0.200000000000     0.905550000000     0          
O        O      0.182450000000     0.200000000000     0.582150000000     0          
O        O      0.174900000000     0.200000000000     0.666000000000     0          
O        O      0.155050000000     0.200000000000     0.739250000000     0          
O        O      0.154200000000     0.200000000000     0.995600000000     0          
O        O      0.136300000000     0.349980000000     0.558250000000     0          
O        O      0.216150000000     0.350020000000     0.647550000000     0          
O        O      0.197300000000     0.250000000000     0.788350000000     0          
O        O      0.120400000000     0.350000000000     0.834000000000     0          
O        O      0.136300000000     0.250020000000     0.558250000000     0          
O        O      0.283850000000     0.350020000000     0.852450000000     0          
O        O      0.302700000000     0.250000000000     0.711650000000     0          
O        O      0.379600000000     0.350000000000     0.666000000000     0          
O        O      0.363700000000     0.250020000000     0.941750000000     0          
O        O      0.493400000000     0.200000000000     0.798900000000     0          
O        O      0.033850000000     0.349980000000     0.852450000000     0          
O        O      0.042000000000     0.200000000000     0.781150000000     0          
O        O      0.052700000000     0.250000000000     0.711650000000     0          
O        O      0.085050000000     0.300000000000     0.670700000000     0          
O        O      0.129600000000     0.350000000000     0.666000000000     0          
O        O      0.101900000000     0.300000000000     0.594450000000     0          
O        O      0.067550000000     0.300000000000     0.917850000000     0          
O        O      0.075100000000     0.300000000000     0.834000000000     0          
O        O      0.094950000000     0.300000000000     0.760750000000     0          
O        O      0.095800000000     0.300000000000     0.504400000000     0          
O        O      0.113700000000     0.249980000000     0.941750000000     0          
O        O      0.006600000000     0.200000000000     0.701100000000     0          
O        O      0.466150000000     0.349980000000     0.647550000000     0          
O        O      0.458000000000     0.200000000000     0.718850000000     0          
O        O      0.447300000000     0.250000000000     0.788350000000     0          
O        O      0.414950000000     0.300000000000     0.829300000000     0          
O        O      0.370400000000     0.350000000000     0.834000000000     0          
O        O      0.398100000000     0.300000000000     0.905550000000     0          
O        O      0.432450000000     0.300000000000     0.582150000000     0          
O        O      0.424900000000     0.300000000000     0.666000000000     0          
O        O      0.405050000000     0.300000000000     0.739250000000     0          
O        O      0.404200000000     0.300000000000     0.995600000000     0          
O        O      0.386300000000     0.249980000000     0.558250000000     0          
O        O      0.466150000000     0.250020000000     0.647550000000     0          
O        O      0.447300000000     0.350000000000     0.788350000000     0          
O        O      0.370400000000     0.250000000000     0.834000000000     0          
O        O      0.386300000000     0.350020000000     0.558250000000     0          
O        O      0.033850000000     0.250020000000     0.852450000000     0          
O        O      0.052700000000     0.350000000000     0.711650000000     0          
O        O      0.129600000000     0.250000000000     0.666000000000     0          
O        O      0.113700000000     0.350020000000     0.941750000000     0          
O        O      0.243400000000     0.500000000000     0.298900000000     0          
O        O      0.283850000000     0.449980000000     0.352450000000     0          
O        O      0.292000000000     0.500000000000     0.281150000000     0          
O        O      0.302700000000     0.550000000000     0.211650000000     0          
O        O      0.335050000000     0.400000000000     0.170700000000     0          
O        O      0.379600000000     0.450000000000     0.166000000000     0          
O        O      0.351900000000     0.400000000000     0.094450000000     0          
O        O      0.317550000000     0.400000000000     0.417850000000     0          
O        O      0.325100000000     0.400000000000     0.334000000000     0          
O        O      0.344950000000     0.400000000000     0.260750000000     0          
O        O      0.345800000000     0.400000000000     0.004400000000     0          
O        O      0.363700000000     0.549980000000     0.441750000000     0          
O        O      0.256600000000     0.500000000000     0.201100000000     0          
O        O      0.216150000000     0.449980000000     0.147550000000     0          
O        O      0.208000000000     0.500000000000     0.218850000000     0          
O        O      0.197300000000     0.550000000000     0.288350000000     0          
O        O      0.164950000000     0.400000000000     0.329300000000     0          
O        O      0.120400000000     0.450000000000     0.334000000000     0          
O        O      0.148100000000     0.400000000000     0.405550000000     0          
O        O      0.182450000000     0.400000000000     0.082150000000     0          
O        O      0.174900000000     0.400000000000     0.166000000000     0          
O        O      0.155050000000     0.400000000000     0.239250000000     0          
O        O      0.154200000000     0.400000000000     0.495600000000     0          
O        O      0.136300000000     0.549980000000     0.058250000000     0          
O        O      0.216150000000     0.550020000000     0.147550000000     0          
O        O      0.197300000000     0.450000000000     0.288350000000     0          
O        O      0.120400000000     0.550000000000     0.334000000000     0          
O        O      0.136300000000     0.450020000000     0.058250000000     0          
O        O      0.283850000000     0.550020000000     0.352450000000     0          
O        O      0.302700000000     0.450000000000     0.211650000000     0          
O        O      0.379600000000     0.550000000000     0.166000000000     0          
O        O      0.363700000000     0.450020000000     0.441750000000     0          
O        O      0.493400000000     0.400000000000     0.298900000000     0          
O        O      0.033850000000     0.549980000000     0.352450000000     0          
O        O      0.042000000000     0.400000000000     0.281150000000     0          
O        O      0.052700000000     0.450000000000     0.211650000000     0          
O        O      0.085050000000     0.500000000000     0.170700000000     0          
O        O      0.129600000000     0.550000000000     0.166000000000     0          
O        O      0.101900000000     0.500000000000     0.094450000000     0          
O        O      0.067550000000     0.500000000000     0.417850000000     0          
O        O      0.075100000000     0.500000000000     0.334000000000     0          
O        O      0.094950000000     0.500000000000     0.260750000000     0          
O        O      0.095800000000     0.500000000000     0.004400000000     0          
O        O      0.113700000000     0.449980000000     0.441750000000     0          
O        O      0.006600000000     0.400000000000     0.201100000000     0          
O        O      0.466150000000     0.549980000000     0.147550000000     0          
O        O      0.458000000000     0.400000000000     0.218850000000     0          
O        O      0.447300000000     0.450000000000     0.288350000000     0          
O        O      0.414950000000     0.500000000000     0.329300000000     0          
O        O      0.370400000000     0.550000000000     0.334000000000     0          
O        O      0.398100000000     0.500000000000     0.405550000000     0          
O        O      0.432450000000     0.500000000000     0.082150000000     0          
O        O      0.424900000000     0.500000000000     0.166000000000     0          
O        O      0.405050000000     0.500000000000     0.239250000000     0          
O        O      0.404200000000     0.500000000000     0.495600000000     0          
O        O      0.386300000000     0.449980000000     0.058250000000     0          
O        O      0.466150000000     0.450020000000     0.147550000000     0          
O        O      0.447300000000     0.550000000000     0.288350000000     0          
O        O      0.370400000000     0.450000000000     0.334000000000     0          
O        O      0.386300000000     0.550020000000     0.058250000000     0          
O        O      0.033850000000     0.450020000000     0.352450000000     0          
O        O      0.052700000000     0.550000000000     0.211650000000     0          
O        O      0.129600000000     0.450000000000     0.166000000000     0          
O        O      0.113700000000     0.550020000000     0.441750000000     0          
O        O      0.243400000000     0.500000000000     0.798900000000     0          
O        O      0.283850000000     0.449980000000     0.852450000000     0          
O        O      0.292000000000     0.500000000000     0.781150000000     0          
O        O      0.302700000000     0.550000000000     0.711650000000     0          
O        O      0.335050000000     0.400000000000     0.670700000000     0          
O        O      0.379600000000     0.450000000000     0.666000000000     0          
O        O      0.351900000000     0.400000000000     0.594450000000     0          
O        O      0.317550000000     0.400000000000     0.917850000000     0          
O        O      0.325100000000     0.400000000000     0.834000000000     0          
O        O      0.344950000000     0.400000000000     0.760750000000     0          
O        O      0.345800000000     0.400000000000     0.504400000000     0          
O        O      0.363700000000     0.549980000000     0.941750000000     0          
O        O      0.256600000000     0.500000000000     0.701100000000     0          
O        O      0.216150000000     0.449980000000     0.647550000000     0          
O        O      0.208000000000     0.500000000000     0.718850000000     0          
O        O      0.197300000000     0.550000000000     0.788350000000     0          
O        O      0.164950000000     0.400000000000     0.829300000000     0          
O        O      0.120400000000     0.450000000000     0.834000000000     0          
O        O      0.148100000000     0.400000000000     0.905550000000     0          
O        O      0.182450000000     0.400000000000     0.582150000000     0          
O        O      0.174900000000     0.400000000000     0.666000000000     0          
O        O      0.155050000000     0.400000000000     0.739250000000     0          
O        O      0.154200000000     0.400000000000     0.995600000000     0          
O        O      0.136300000000     0.549980000000     0.558250000000     0          
O        O      0.216150000000     0.550020000000     0.647550000000     0          
O        O      0.197300000000     0.450000000000     0.788350000000     0          
O        O      0.120400000000     0.550000000000     0.834000000000     0          
O        O      0.136300000000     0.450020000000     0.558250000000     0          
O        O      0.283850000000     0.550020000000     0.852450000000     0          
O        O      0.302700000000     0.450000000000     0.711650000000     0          
O        O      0.379600000000     0.550000000000     0.666000000000     0          
O        O      0.363700000000     0.450020000000     0.941750000000     0          
O        O      0.493400000000     0.400000000000     0.798900000000     0          
O        O      0.033850000000     0.549980000000     0.852450000000     0          
O        O      0.042000000000     0.400000000000     0.781150000000     0          
O        O      0.052700000000     0.450000000000     0.711650000000     0          
O        O      0.085050000000     0.500000000000     0.670700000000     0          
O        O      0.129600000000     0.550000000000     0.666000000000     0          
O        O      0.101900000000     0.500000000000     0.594450000000     0          
O        O      0.067550000000     0.500000000000     0.917850000000     0          
O        O      0.075100000000     0.500000000000     0.834000000000     0          
O        O      0.094950000000     0.500000000000     0.760750000000     0          
O        O      0.095800000000     0.500000000000     0.504400000000     0          
O        O      0.113700000000     0.449980000000     0.941750000000     0          
O        O      0.006600000000     0.400000000000     0.701100000000     0          
O        O      0.466150000000     0.549980000000     0.647550000000     0          
O        O      0.458000000000     0.400000000000     0.718850000000     0          
O        O      0.447300000000     0.450000000000     0.788350000000     0          
O        O      0.414950000000     0.500000000000     0.829300000000     0          
O        O      0.370400000000     0.550000000000     0.834000000000     0          
O        O      0.398100000000     0.500000000000     0.905550000000     0          
O        O      0.432450000000     0.500000000000     0.582150000000     0          
O        O      0.424900000000     0.500000000000     0.666000000000     0          
O        O      0.405050000000     0.500000000000     0.739250000000     0          
O        O      0.404200000000     0.500000000000     0.995600000000     0          
O        O      0.386300000000     0.449980000000     0.558250000000     0          
O        O      0.466150000000     0.450020000000     0.647550000000     0          
O        O      0.447300000000     0.550000000000     0.788350000000     0          
O        O      0.370400000000     0.450000000000     0.834000000000     0          
O        O      0.386300000000     0.550020000000     0.558250000000     0          
O        O      0.033850000000     0.450020000000     0.852450000000     0          
O        O      0.052700000000     0.550000000000     0.711650000000     0          
O        O      0.129600000000     0.450000000000     0.666000000000     0          
O        O      0.113700000000     0.550020000000     0.941750000000     0          
O        O      0.243400000000     0.700000000000     0.298900000000     0          
O        O      0.283850000000     0.649980000000     0.352450000000     0          
O        O      0.292000000000     0.700000000000     0.281150000000     0          
O        O      0.302700000000     0.750000000000     0.211650000000     0          
O        O      0.335050000000     0.600000000000     0.170700000000     0          
O        O      0.379600000000     0.650000000000     0.166000000000     0          
O        O      0.351900000000     0.600000000000     0.094450000000     0          
O        O      0.317550000000     0.600000000000     0.417850000000     0          
O        O      0.325100000000     0.600000000000     0.334000000000     0          
O        O      0.344950000000     0.600000000000     0.260750000000     0          
O        O      0.345800000000     0.600000000000     0.004400000000     0          
O        O      0.363700000000     0.749980000000     0.441750000000     0          
O        O      0.256600000000     0.700000000000     0.201100000000     0          
O        O      0.216150000000     0.649980000000     0.147550000000     0          
O        O      0.208000000000     0.700000000000     0.218850000000     0          
O        O      0.197300000000     0.750000000000     0.288350000000     0          
O        O      0.164950000000     0.600000000000     0.329300000000     0          
O        O      0.120400000000     0.650000000000     0.334000000000     0          
O        O      0.148100000000     0.600000000000     0.405550000000     0          
O        O      0.182450000000     0.600000000000     0.082150000000     0          
O        O      0.174900000000     0.600000000000     0.166000000000     0          
O        O      0.155050000000     0.600000000000     0.239250000000     0          
O        O      0.154200000000     0.600000000000     0.495600000000     0          
O        O      0.136300000000     0.749980000000     0.058250000000     0          
O        O      0.216150000000     0.750020000000     0.147550000000     0          
O        O      0.197300000000     0.650000000000     0.288350000000     0          
O        O      0.120400000000     0.750000000000     0.334000000000     0          
O        O      0.136300000000     0.650020000000     0.058250000000     0          
O        O      0.283850000000     0.750020000000     0.352450000000     0          
O        O      0.302700000000     0.650000000000     0.211650000000     0          
O        O      0.379600000000     0.750000000000     0.166000000000     0          
O        O      0.363700000000     0.650020000000     0.441750000000     0          
O        O      0.493400000000     0.600000000000     0.298900000000     0          
O        O      0.033850000000     0.749980000000     0.352450000000     0          
O        O      0.042000000000     0.600000000000     0.281150000000     0          
O        O      0.052700000000     0.650000000000     0.211650000000     0          
O        O      0.085050000000     0.700000000000     0.170700000000     0          
O        O      0.129600000000     0.750000000000     0.166000000000     0          
O        O      0.101900000000     0.700000000000     0.094450000000     0          
O        O      0.067550000000     0.700000000000     0.417850000000     0          
O        O      0.075100000000     0.700000000000     0.334000000000     0          
O        O      0.094950000000     0.700000000000     0.260750000000     0          
O        O      0.095800000000     0.700000000000     0.004400000000     0          
O        O      0.113700000000     0.649980000000     0.441750000000     0          
O        O      0.006600000000     0.600000000000     0.201100000000     0          
O        O      0.466150000000     0.749980000000     0.147550000000     0          
O        O      0.458000000000     0.600000000000     0.218850000000     0          
O        O      0.447300000000     0.650000000000     0.288350000000     0          
O        O      0.414950000000     0.700000000000     0.329300000000     0          
O        O      0.370400000000     0.750000000000     0.334000000000     0          
O        O      0.398100000000     0.700000000000     0.405550000000     0          
O        O      0.432450000000     0.700000000000     0.082150000000     0          
O        O      0.424900000000     0.700000000000     0.166000000000     0          
O        O      0.405050000000     0.700000000000     0.239250000000     0          
O        O      0.404200000000     0.700000000000     0.495600000000     0          
O        O      0.386300000000     0.649980000000     0.058250000000     0          
O        O      0.466150000000     0.650020000000     0.147550000000     0          
O        O      0.447300000000     0.750000000000     0.288350000000     0          
O        O      0.370400000000     0.650000000000     0.334000000000     0          
O        O      0.386300000000     0.750020000000     0.058250000000     0          
O        O      0.033850000000     0.650020000000     0.352450000000     0          
O        O      0.052700000000     0.750000000000     0.211650000000     0          
O        O      0.129600000000     0.650000000000     0.166000000000     0          
O        O      0.113700000000     0.750020000000     0.441750000000     0          
O        O      0.243400000000     0.700000000000     0.798900000000     0          
O        O      0.283850000000     0.649980000000     0.852450000000     0          
O        O      0.292000000000     0.700000000000     0.781150000000     0          
O        O      0.302700000000     0.750000000000     0.711650000000     0          
O        O      0.335050000000     0.600000000000     0.670700000000     0          
O        O      0.379600000000     0.650000000000     0.666000000000     0          
O        O      0.351900000000     0.600000000000     0.594450000000     0          
O        O      0.317550000000     0.600000000000     0.917850000000     0          
O        O      0.325100000000     0.600000000000     0.834000000000     0          
O        O      0.344950000000     0.600000000000     0.760750000000     0          
O        O      0.345800000000     0.600000000000     0.504400000000     0          
O        O      0.363700000000     0.749980000000     0.941750000000     0          
O        O      0.256600000000     0.700000000000     0.701100000000     0          
O        O      0.216150000000     0.649980000000     0.647550000000     0          
O        O      0.208000000000     0.700000000000     0.718850000000     0          
O        O      0.197300000000     0.750000000000     0.788350000000     0          
O        O      0.164950000000     0.600000000000     0.829300000000     0          
O        O      0.120400000000     0.650000000000     0.834000000000     0          
O        O      0.148100000000     0.600000000000     0.905550000000     0          
O        O      0.182450000000     0.600000000000     0.582150000000     0          
O        O      0.174900000000     0.600000000000     0.666000000000     0          
O        O      0.155050000000     0.600000000000     0.739250000000     0          
O        O      0.154200000000     0.600000000000     0.995600000000     0          
O        O      0.136300000000     0.749980000000     0.558250000000     0          
O        O      0.216150000000     0.750020000000     0.647550000000     0          
O        O      0.197300000000     0.650000000000     0.788350000000     0          
O        O      0.120400000000     0.750000000000     0.834000000000     0          
O        O      0.136300000000     0.650020000000     0.558250000000     0          
O        O      0.283850000000     0.750020000000     0.852450000000     0          
O        O      0.302700000000     0.650000000000     0.711650000000     0          
O        O      0.379600000000     0.750000000000     0.666000000000     0          
O        O      0.363700000000     0.650020000000     0.941750000000     0          
O        O      0.493400000000     0.600000000000     0.798900000000     0          
O        O      0.033850000000     0.749980000000     0.852450000000     0          
O        O      0.042000000000     0.600000000000     0.781150000000     0          
O        O      0.052700000000     0.650000000000     0.711650000000     0          
O        O      0.085050000000     0.700000000000     0.670700000000     0          
O        O      0.129600000000     0.750000000000     0.666000000000     0          
O        O      0.101900000000     0.700000000000     0.594450000000     0          
O        O      0.067550000000     0.700000000000     0.917850000000     0          
O        O      0.075100000000     0.700000000000     0.834000000000     0          
O        O      0.094950000000     0.700000000000     0.760750000000     0          
O        O      0.095800000000     0.700000000000     0.504400000000     0          
O        O      0.113700000000     0.649980000000     0.941750000000     0          
O        O      0.006600000000     0.600000000000     0.701100000000     0          
O        O      0.466150000000     0.749980000000     0.647550000000     0          
O        O      0.458000000000     0.600000000000     0.718850000000     0          
O        O      0.447300000000     0.650000000000     0.788350000000     0          
O        O      0.414950000000     0.700000000000     0.829300000000     0          
O        O      0.370400000000     0.750000000000     0.834000000000     0          
O        O      0.398100000000     0.700000000000     0.905550000000     0          
O        O      0.432450000000     0.700000000000     0.582150000000     0          
O        O      0.424900000000     0.700000000000     0.666000000000     0          
O        O      0.405050000000     0.700000000000     0.739250000000     0          
O        O      0.404200000000     0.700000000000     0.995600000000     0          
O        O      0.386300000000     0.649980000000     0.558250000000     0          
O        O      0.466150000000     0.650020000000     0.647550000000     0          
O        O      0.447300000000     0.750000000000     0.788350000000     0          
O        O      0.370400000000     0.650000000000     0.834000000000     0          
O        O      0.386300000000     0.750020000000     0.558250000000     0          
O        O      0.033850000000     0.650020000000     0.852450000000     0          
O        O      0.052700000000     0.750000000000     0.711650000000     0          
O        O      0.129600000000     0.650000000000     0.666000000000     0          
O        O      0.113700000000     0.750020000000     0.941750000000     0          
O        O      0.243400000000     0.900000000000     0.298900000000     0          
O        O      0.283850000000     0.849980000000     0.352450000000     0          
O        O      0.292000000000     0.900000000000     0.281150000000     0          
O        O      0.302700000000     0.950000000000     0.211650000000     0          
O        O      0.335050000000     0.800000000000     0.170700000000     0          
O        O      0.379600000000     0.850000000000     0.166000000000     0          
O        O      0.351900000000     0.800000000000     0.094450000000     0          
O        O      0.317550000000     0.800000000000     0.417850000000     0          
O        O      0.325100000000     0.800000000000     0.334000000000     0          
O        O      0.344950000000     0.800000000000     0.260750000000     0          
O        O      0.345800000000     0.800000000000     0.004400000000     0          
O        O      0.363700000000     0.949980000000     0.441750000000     0          
O        O      0.256600000000     0.900000000000     0.201100000000     0          
O        O      0.216150000000     0.849980000000     0.147550000000     0          
O        O      0.208000000000     0.900000000000     0.218850000000     0          
O        O      0.197300000000     0.950000000000     0.288350000000     0          
O        O      0.164950000000     0.800000000000     0.329300000000     0          
O        O      0.120400000000     0.850000000000     0.334000000000     0          
O        O      0.148100000000     0.800000000000     0.405550000000     0          
O        O      0.182450000000     0.800000000000     0.082150000000     0          
O        O      0.174900000000     0.800000000000     0.166000000000     0          
O        O      0.155050000000     0.800000000000     0.239250000000     0          
O        O      0.154200000000     0.800000000000     0.495600000000     0          
O        O      0.136300000000     0.949980000000     0.058250000000     0          
O        O      0.216150000000     0.950020000000     0.147550000000     0          
O        O      0.197300000000     0.850000000000     0.288350000000     0          
O        O      0.120400000000     0.950000000000     0.334000000000     0          
O        O      0.136300000000     0.850020000000     0.058250000000     0          
O        O      0.283850000000     0.950020000000     0.352450000000     0          
O        O      0.302700000000     0.850000000000     0.211650000000     0          
O        O      0.379600000000     0.950000000000     0.166000000000     0          
O        O      0.363700000000     0.850020000000     0.441750000000     0          
O        O      0.493400000000     0.800000000000     0.298900000000     0          
O        O      0.033850000000     0.949980000000     0.352450000000     0          
O        O      0.042000000000     0.800000000000     0.281150000000     0          
O        O      0.052700000000     0.850000000000     0.211650000000     0          
O        O      0.085050000000     0.900000000000     0.170700000000     0          
O        O      0.129600000000     0.950000000000     0.166000000000     0          
O        O      0.101900000000     0.900000000000     0.094450000000     0          
O        O      0.067550000000     0.900000000000     0.417850000000     0          
O        O      0.075100000000     0.900000000000     0.334000000000     0          
O        O      0.094950000000     0.900000000000     0.260750000000     0          
O        O      0.095800000000     0.900000000000     0.004400000000     0          
O        O      0.113700000000     0.849980000000     0.441750000000     0          
O        O      0.006600000000     0.800000000000     0.201100000000     0          
O        O      0.466150000000     0.949980000000     0.147550000000     0          
O        O      0.458000000000     0.800000000000     0.218850000000     0          
O        O      0.447300000000     0.850000000000     0.288350000000     0          
O        O      0.414950000000     0.900000000000     0.329300000000     0          
O        O      0.370400000000     0.950000000000     0.334000000000     0          
O        O      0.398100000000     0.900000000000     0.405550000000     0          
O        O      0.432450000000     0.900000000000     0.082150000000     0          
O        O      0.424900000000     0.900000000000     0.166000000000     0          
O        O      0.405050000000     0.900000000000     0.239250000000     0          
O        O      0.404200000000     0.900000000000     0.495600000000     0          
O        O      0.386300000000     0.849980000000     0.058250000000     0          
O        O      0.466150000000     0.850020000000     0.147550000000     0          
O        O      0.447300000000     0.950000000000     0.288350000000     0          
O        O      0.370400000000     0.850000000000     0.334000000000     0          
O        O      0.386300000000     0.950020000000     0.058250000000     0          
O        O      0.033850000000     0.850020000000     0.352450000000     0          
O        O      0.052700000000     0.950000000000     0.211650000000     0          
O        O      0.129600000000     0.850000000000     0.166000000000     0          
O        O      0.113700000000     0.950020000000     0.441750000000     0          
O        O      0.243400000000     0.900000000000     0.798900000000     0          
O        O      0.283850000000     0.849980000000     0.852450000000     0          
O        O      0.292000000000     0.900000000000     0.781150000000     0          
O        O      0.302700000000     0.950000000000     0.711650000000     0          
O        O      0.335050000000     0.800000000000     0.670700000000     0          
O        O      0.379600000000     0.850000000000     0.666000000000     0          
O        O      0.351900000000     0.800000000000     0.594450000000     0          
O        O      0.317550000000     0.800000000000     0.917850000000     0          
O        O      0.325100000000     0.800000000000     0.834000000000     0          
O        O      0.344950000000     0.800000000000     0.760750000000     0          
O        O      0.345800000000     0.800000000000     0.504400000000     0          
O        O      0.363700000000     0.949980000000     0.941750000000     0          
O        O      0.256600000000     0.900000000000     0.701100000000     0          
O        O      0.216150000000     0.849980000000     0.647550000000     0          
O        O      0.208000000000     0.900000000000     0.718850000000     0          
O        O      0.197300000000     0.950000000000     0.788350000000     0          
O        O      0.164950000000     0.800000000000     0.829300000000     0          
O        O      0.120400000000     0.850000000000     0.834000000000     0          
O        O      0.148100000000     0.800000000000     0.905550000000     0          
O        O      0.182450000000     0.800000000000     0.582150000000     0          
O        O      0.174900000000     0.800000000000     0.666000000000     0          
O        O      0.155050000000     0.800000000000     0.739250000000     0          
O        O      0.154200000000     0.800000000000     0.995600000000     0          
O        O      0.136300000000     0.949980000000     0.558250000000     0          
O        O      0.216150000000     0.950020000000     0.647550000000     0          
O        O      0.197300000000     0.850000000000     0.788350000000     0          
O        O      0.120400000000     0.950000000000     0.834000000000     0          
O        O      0.136300000000     0.850020000000     0.558250000000     0          
O        O      0.283850000000     0.950020000000     0.852450000000     0          
O        O      0.302700000000     0.850000000000     0.711650000000     0          
O        O      0.379600000000     0.950000000000     0.666000000000     0          
O        O      0.363700000000     0.850020000000     0.941750000000     0          
O        O      0.493400000000     0.800000000000     0.798900000000     0          
O        O      0.033850000000     0.949980000000     0.852450000000     0          
O        O      0.042000000000     0.800000000000     0.781150000000     0          
O        O      0.052700000000     0.850000000000     0.711650000000     0          
O        O      0.085050000000     0.900000000000     0.670700000000     0          
O        O      0.129600000000     0.950000000000     0.666000000000     0          
O        O      0.101900000000     0.900000000000     0.594450000000     0          
O        O      0.067550000000     0.900000000000     0.917850000000     0          
O        O      0.075100000000     0.900000000000     0.834000000000     0          
O        O      0.094950000000     0.900000000000     0.760750000000     0          
O        O      0.095800000000     0.900000000000     0.504400000000     0          
O        O      0.113700000000     0.849980000000     0.941750000000     0          
O        O      0.006600000000     0.800000000000     0.701100000000     0          
O        O      0.466150000000     0.949980000000     0.647550000000     0          
O        O      0.458000000000     0.800000000000     0.718850000000     0          
O        O      0.447300000000     0.850000000000     0.788350000000     0          
O        O      0.414950000000     0.900000000000     0.829300000000     0          
O        O      0.370400000000     0.950000000000     0.834000000000     0          
O        O      0.398100000000     0.900000000000     0.905550000000     0          
O        O      0.432450000000     0.900000000000     0.582150000000     0          
O        O      0.424900000000     0.900000000000     0.666000000000     0          
O        O      0.405050000000     0.900000000000     0.739250000000     0          
O        O      0.404200000000     0.900000000000     0.995600000000     0          
O        O      0.386300000000     0.849980000000     0.558250000000     0          
O        O      0.466150000000     0.850020000000     0.647550000000     0          
O        O      0.447300000000     0.950000000000     0.788350000000     0          
O        O      0.370400000000     0.850000000000     0.834000000000     0          
O        O      0.386300000000     0.950020000000     0.558250000000     0          
O        O      0.033850000000     0.850020000000     0.852450000000     0          
O        O      0.052700000000     0.950000000000     0.711650000000     0          
O        O      0.129600000000     0.850000000000     0.666000000000     0          
O        O      0.113700000000     0.950020000000     0.941750000000     0          
O        O      0.743400000000     0.100000000000     0.298900000000     0          
O        O      0.783850000000     0.049980000000     0.352450000000     0          
O        O      0.792000000000     0.100000000000     0.281150000000     0          
O        O      0.802700000000     0.150000000000     0.211650000000     0          
O        O      0.835050000000     0.000000000000     0.170700000000     0          
O        O      0.879600000000     0.050000000000     0.166000000000     0          
O        O      0.851900000000     0.000000000000     0.094450000000     0          
O        O      0.817550000000     0.000000000000     0.417850000000     0          
O        O      0.825100000000     0.000000000000     0.334000000000     0          
O        O      0.844950000000     0.000000000000     0.260750000000     0          
O        O      0.845800000000     0.000000000000     0.004400000000     0          
O        O      0.863700000000     0.149980000000     0.441750000000     0          
O        O      0.756600000000     0.100000000000     0.201100000000     0          
O        O      0.716150000000     0.049980000000     0.147550000000     0          
O        O      0.708000000000     0.100000000000     0.218850000000     0          
O        O      0.697300000000     0.150000000000     0.288350000000     0          
O        O      0.664950000000     0.000000000000     0.329300000000     0          
O        O      0.620400000000     0.050000000000     0.334000000000     0          
O        O      0.648100000000     0.000000000000     0.405550000000     0          
O        O      0.682450000000     0.000000000000     0.082150000000     0          
O        O      0.674900000000     0.000000000000     0.166000000000     0          
O        O      0.655050000000     0.000000000000     0.239250000000     0          
O        O      0.654200000000     0.000000000000     0.495600000000     0          
O        O      0.636300000000     0.149980000000     0.058250000000     0          
O        O      0.716150000000     0.150020000000     0.147550000000     0          
O        O      0.697300000000     0.050000000000     0.288350000000     0          
O        O      0.620400000000     0.150000000000     0.334000000000     0          
O        O      0.636300000000     0.050020000000     0.058250000000     0          
O        O      0.783850000000     0.150020000000     0.352450000000     0          
O        O      0.802700000000     0.050000000000     0.211650000000     0          
O        O      0.879600000000     0.150000000000     0.166000000000     0          
O        O      0.863700000000     0.050020000000     0.441750000000     0          
O        O      0.993400000000     0.000000000000     0.298900000000     0          
O        O      0.533850000000     0.149980000000     0.352450000000     0          
O        O      0.542000000000     0.000000000000     0.281150000000     0          
O        O      0.552700000000     0.050000000000     0.211650000000     0          
O        O      0.585050000000     0.100000000000     0.170700000000     0          
O        O      0.629600000000     0.150000000000     0.166000000000     0          
O        O      0.601900000000     0.100000000000     0.094450000000     0          
O        O      0.567550000000     0.100000000000     0.417850000000     0          
O        O      0.575100000000     0.100000000000     0.334000000000     0          
O        O      0.594950000000     0.100000000000     0.260750000000     0          
O        O      0.595800000000     0.100000000000     0.004400000000     0          
O        O      0.613700000000     0.049980000000     0.441750000000     0          
O        O      0.506600000000     0.000000000000     0.201100000000     0          
O        O      0.966150000000     0.149980000000     0.147550000000     0          
O        O      0.958000000000     0.000000000000     0.218850000000     0          
O        O      0.947300000000     0.050000000000     0.288350000000     0          
O        O      0.914950000000     0.100000000000     0.329300000000     0          
O        O      0.870400000000     0.150000000000     0.334000000000     0          
O        O      0.898100000000     0.100000000000     0.405550000000     0          
O        O      0.932450000000     0.100000000000     0.082150000000     0          
O        O      0.924900000000     0.100000000000     0.166000000000     0          
O        O      0.905050000000     0.100000000000     0.239250000000     0          
O        O      0.904200000000     0.100000000000     0.495600000000     0          
O        O      0.886300000000     0.049980000000     0.058250000000     0          
O        O      0.966150000000     0.050020000000     0.147550000000     0          
O        O      0.947300000000     0.150000000000     0.288350000000     0          
O        O      0.870400000000     0.050000000000     0.334000000000     0          
O        O      0.886300000000     0.150020000000     0.058250000000     0          
O        O      0.533850000000     0.050020000000     0.352450000000     0          
O        O      0.552700000000     0.150000000000     0.211650000000     0          
O        O      0.629600000000     0.050000000000     0.166000000000     0          
O        O      0.613700000000     0.150020000000     0.441750000000     0          
O        O      0.743400000000     0.100000000000     0.798900000000     0          
O        O      0.783850000000     0.049980000000     0.852450000000     0          
O        O      0.792000000000     0.100000000000     0.781150000000     0          
O        O      0.802700000000     0.150000000000     0.711650000000     0          
O        O      0.835050000000     0.000000000000     0.670700000000     0          
O        O      0.879600000000     0.050000000000     0.666000000000     0          
O        O      0.851900000000     0.000000000000     0.594450000000     0          
O        O      0.817550000000     0.000000000000     0.917850000000     0          
O        O      0.825100000000     0.000000000000     0.834000000000     0          
O        O      0.844950000000     0.000000000000     0.760750000000     0          
O        O      0.845800000000     0.000000000000     0.504400000000     0          
O        O      0.863700000000     0.149980000000     0.941750000000     0          
O        O      0.756600000000     0.100000000000     0.701100000000     0          
O        O      0.716150000000     0.049980000000     0.647550000000     0          
O        O      0.708000000000     0.100000000000     0.718850000000     0          
O        O      0.697300000000     0.150000000000     0.788350000000     0          
O        O      0.664950000000     0.000000000000     0.829300000000     0          
O        O      0.620400000000     0.050000000000     0.834000000000     0          
O        O      0.648100000000     0.000000000000     0.905550000000     0          
O        O      0.682450000000     0.000000000000     0.582150000000     0          
O        O      0.674900000000     0.000000000000     0.666000000000     0          
O        O      0.655050000000     0.000000000000     0.739250000000     0          
O        O      0.654200000000     0.000000000000     0.995600000000     0          
O        O      0.636300000000     0.149980000000     0.558250000000     0          
O        O      0.716150000000     0.150020000000     0.647550000000     0          
O        O      0.697300000000     0.050000000000     0.788350000000     0          
O        O      0.620400000000     0.150000000000     0.834000000000     0          
O        O      0.636300000000     0.050020000000     0.558250000000     0          
O        O      0.783850000000     0.150020000000     0.852450000000     0          
O        O      0.802700000000     0.050000000000     0.711650000000     0          
O        O      0.879600000000     0.150000000000     0.666000000000     0          
O        O      0.863700000000     0.050020000000     0.941750000000     0          
O        O      0.993400000000     0.000000000000     0.798900000000     0          
O        O      0.533850000000     0.149980000000     0.852450000000     0          
O        O      0.542000000000     0.000000000000     0.781150000000     0          
O        O      0.552700000000     0.050000000000     0.711650000000     0          
O        O      0.585050000000     0.100000000000     0.670700000000     0          
O        O      0.629600000000     0.150000000000     0.666000000000     0          
O        O      0.601900000000     0.100000000000     0.594450000000     0          
O        O      0.567550000000     0.100000000000     0.917850000000     0          
O        O      0.575100000000     0.100000000000     0.834000000000     0          
O        O      0.594950000000     0.100000000000     0.760750000000     0          
O        O      0.595800000000     0.100000000000     0.504400000000     0          
O        O      0.613700000000     0.049980000000     0.941750000000     0          
O        O      0.506600000000     0.000000000000     0.701100000000     0          
O        O      0.966150000000     0.149980000000     0.647550000000     0          
O        O      0.958000000000     0.000000000000     0.718850000000     0          
O        O      0.947300000000     0.050000000000     0.788350000000     0          
O        O      0.914950000000     0.100000000000     0.829300000000     0          
O        O      0.870400000000     0.150000000000     0.834000000000     0          
O        O      0.898100000000     0.100000000000     0.905550000000     0          
O        O      0.932450000000     0.100000000000     0.582150000000     0          
O        O      0.924900000000     0.100000000000     0.666000000000     0          
O        O      0.905050000000     0.100000000000     0.739250000000     0          
O        O      0.904200000000     0.100000000000     0.995600000000     0          
O        O      0.886300000000     0.049980000000     0.558250000000     0          
O        O      0.966150000000     0.050020000000     0.647550000000     0          
O        O      0.947300000000     0.150000000000     0.788350000000     0          
O        O      0.870400000000     0.050000000000     0.834000000000     0          
O        O      0.886300000000     0.150020000000     0.558250000000     0          
O        O      0.533850000000     0.050020000000     0.852450000000     0          
O        O      0.552700000000     0.150000000000     0.711650000000     0          
O        O      0.629600000000     0.050000000000     0.666000000000     0          
O        O      0.613700000000     0.150020000000     0.941750000000     0          
O        O      0.743400000000     0.300000000000     0.298900000000     0          
O        O      0.783850000000     0.249980000000     0.352450000000     0          
O        O      0.792000000000     0.300000000000     0.281150000000     0          
O        O      0.802700000000     0.350000000000     0.211650000000     0          
O        O      0.835050000000     0.200000000000     0.170700000000     0          
O        O      0.879600000000     0.250000000000     0.166000000000     0          
O        O      0.851900000000     0.200000000000     0.094450000000     0          
O        O      0.817550000000     0.200000000000     0.417850000000     0          
O        O      0.825100000000     0.200000000000     0.334000000000     0          
O        O      0.844950000000     0.200000000000     0.260750000000     0          
O        O      0.845800000000     0.200000000000     0.004400000000     0          
O        O      0.863700000000     0.349980000000     0.441750000000     0          
O        O      0.756600000000     0.300000000000     0.201100000000     0          
O        O      0.716150000000     0.249980000000     0.147550000000     0          
O        O      0.708000000000     0.300000000000     0.218850000000     0          
O        O      0.697300000000     0.350000000000     0.288350000000     0          
O        O      0.664950000000     0.200000000000     0.329300000000     0          
O        O      0.620400000000     0.250000000000     0.334000000000     0          
O        O      0.648100000000     0.200000000000     0.405550000000     0          
O        O      0.682450000000     0.200000000000     0.082150000000     0          
O        O      0.674900000000     0.200000000000     0.166000000000     0          
O        O      0.655050000000     0.200000000000     0.239250000000     0          
O        O      0.654200000000     0.200000000000     0.495600000000     0          
O        O      0.636300000000     0.349980000000     0.058250000000     0          
O        O      0.716150000000     0.350020000000     0.147550000000     0          
O        O      0.697300000000     0.250000000000     0.288350000000     0          
O        O      0.620400000000     0.350000000000     0.334000000000     0          
O        O      0.636300000000     0.250020000000     0.058250000000     0          
O        O      0.783850000000     0.350020000000     0.352450000000     0          
O        O      0.802700000000     0.250000000000     0.211650000000     0          
O        O      0.879600000000     0.350000000000     0.166000000000     0          
O        O      0.863700000000     0.250020000000     0.441750000000     0          
O        O      0.993400000000     0.200000000000     0.298900000000     0          
O        O      0.533850000000     0.349980000000     0.352450000000     0          
O        O      0.542000000000     0.200000000000     0.281150000000     0          
O        O      0.552700000000     0.250000000000     0.211650000000     0          
O        O      0.585050000000     0.300000000000     0.170700000000     0          
O        O      0.629600000000     0.350000000000     0.166000000000     0          
O        O      0.601900000000     0.300000000000     0.094450000000     0          
O        O      0.567550000000     0.300000000000     0.417850000000     0          
O        O      0.575100000000     0.300000000000     0.334000000000     0          
O        O      0.594950000000     0.300000000000     0.260750000000     0          
O        O      0.595800000000     0.300000000000     0.004400000000     0          
O        O      0.613700000000     0.249980000000     0.441750000000     0          
O        O      0.506600000000     0.200000000000     0.201100000000     0          
O        O      0.966150000000     0.349980000000     0.147550000000     0          
O        O      0.958000000000     0.200000000000     0.218850000000     0          
O        O      0.947300000000     0.250000000000     0.288350000000     0          
O        O      0.914950000000     0.300000000000     0.329300000000     0          
O        O      0.870400000000     0.350000000000     0.334000000000     0          
O        O      0.898100000000     0.300000000000     0.405550000000     0          
O        O      0.932450000000     0.300000000000     0.082150000000     0          
O        O      0.924900000000     0.300000000000     0.166000000000     0          
O        O      0.905050000000     0.300000000000     0.239250000000     0          
O        O      0.904200000000     0.300000000000     0.495600000000     0          
O        O      0.886300000000     0.249980000000     0.058250000000     0          
O        O      0.966150000000     0.250020000000     0.147550000000     0          
O        O      0.947300000000     0.350000000000     0.288350000000     0          
O        O      0.870400000000     0.250000000000     0.334000000000     0          
O        O      0.886300000000     0.350020000000     0.058250000000     0          
O        O      0.533850000000     0.250020000000     0.352450000000     0          
O        O      0.552700000000     0.350000000000     0.211650000000     0          
O        O      0.629600000000     0.250000000000     0.166000000000     0          
O        O      0.613700000000     0.350020000000     0.441750000000     0          
O        O      0.743400000000     0.300000000000     0.798900000000     0          
O        O      0.783850000000     0.249980000000     0.852450000000     0          
O        O      0.792000000000     0.300000000000     0.781150000000     0          
O        O      0.802700000000     0.350000000000     0.711650000000     0          
O        O      0.835050000000     0.200000000000     0.670700000000     0          
O        O      0.879600000000     0.250000000000     0.666000000000     0          
O        O      0.851900000000     0.200000000000     0.594450000000     0          
O        O      0.817550000000     0.200000000000     0.917850000000     0          
O        O      0.825100000000     0.200000000000     0.834000000000     0          
O        O      0.844950000000     0.200000000000     0.760750000000     0          
O        O      0.845800000000     0.200000000000     0.504400000000     0          
O        O      0.863700000000     0.349980000000     0.941750000000     0          
O        O      0.756600000000     0.300000000000     0.701100000000     0          
O        O      0.716150000000     0.249980000000     0.647550000000     0          
O        O      0.708000000000     0.300000000000     0.718850000000     0          
O        O      0.697300000000     0.350000000000     0.788350000000     0          
O        O      0.664950000000     0.200000000000     0.829300000000     0          
O        O      0.620400000000     0.250000000000     0.834000000000     0          
O        O      0.648100000000     0.200000000000     0.905550000000     0          
O        O      0.682450000000     0.200000000000     0.582150000000     0          
O        O      0.674900000000     0.200000000000     0.666000000000     0          
O        O      0.655050000000     0.200000000000     0.739250000000     0          
O        O      0.654200000000     0.200000000000     0.995600000000     0          
O        O      0.636300000000     0.349980000000     0.558250000000     0          
O        O      0.716150000000     0.350020000000     0.647550000000     0          
O        O      0.697300000000     0.250000000000     0.788350000000     0          
O        O      0.620400000000     0.350000000000     0.834000000000     0          
O        O      0.636300000000     0.250020000000     0.558250000000     0          
O        O      0.783850000000     0.350020000000     0.852450000000     0          
O        O      0.802700000000     0.250000000000     0.711650000000     0          
O        O      0.879600000000     0.350000000000     0.666000000000     0          
O        O      0.863700000000     0.250020000000     0.941750000000     0          
O        O      0.993400000000     0.200000000000     0.798900000000     0          
O        O      0.533850000000     0.349980000000     0.852450000000     0          
O        O      0.542000000000     0.200000000000     0.781150000000     0          
O        O      0.552700000000     0.250000000000     0.711650000000     0          
O        O      0.585050000000     0.300000000000     0.670700000000     0          
O        O      0.629600000000     0.350000000000     0.666000000000     0          
O        O      0.601900000000     0.300000000000     0.594450000000     0          
O        O      0.567550000000     0.300000000000     0.917850000000     0          
O        O      0.575100000000     0.300000000000     0.834000000000     0          
O        O      0.594950000000     0.300000000000     0.760750000000     0          
O        O      0.595800000000     0.300000000000     0.504400000000     0          
O        O      0.613700000000     0.249980000000     0.941750000000     0          
O        O      0.506600000000     0.200000000000     0.701100000000     0          
O        O      0.966150000000     0.349980000000     0.647550000000     0          
O        O      0.958000000000     0.200000000000     0.718850000000     0          
O        O      0.947300000000     0.250000000000     0.788350000000     0          
O        O      0.914950000000     0.300000000000     0.829300000000     0          
O        O      0.870400000000     0.350000000000     0.834000000000     0          
O        O      0.898100000000     0.300000000000     0.905550000000     0          
O        O      0.932450000000     0.300000000000     0.582150000000     0          
O        O      0.924900000000     0.300000000000     0.666000000000     0          
O        O      0.905050000000     0.300000000000     0.739250000000     0          
O        O      0.904200000000     0.300000000000     0.995600000000     0          
O        O      0.886300000000     0.249980000000     0.558250000000     0          
O        O      0.966150000000     0.250020000000     0.647550000000     0          
O        O      0.947300000000     0.350000000000     0.788350000000     0          
O        O      0.870400000000     0.250000000000     0.834000000000     0          
O        O      0.886300000000     0.350020000000     0.558250000000     0          
O        O      0.533850000000     0.250020000000     0.852450000000     0          
O        O      0.552700000000     0.350000000000     0.711650000000     0          
O        O      0.629600000000     0.250000000000     0.666000000000     0          
O        O      0.613700000000     0.350020000000     0.941750000000     0          
O        O      0.743400000000     0.500000000000     0.298900000000     0          
O        O      0.783850000000     0.449980000000     0.352450000000     0          
O        O      0.792000000000     0.500000000000     0.281150000000     0          
O        O      0.802700000000     0.550000000000     0.211650000000     0          
O        O      0.835050000000     0.400000000000     0.170700000000     0          
O        O      0.879600000000     0.450000000000     0.166000000000     0          
O        O      0.851900000000     0.400000000000     0.094450000000     0          
O        O      0.817550000000     0.400000000000     0.417850000000     0          
O        O      0.825100000000     0.400000000000     0.334000000000     0          
O        O      0.844950000000     0.400000000000     0.260750000000     0          
O        O      0.845800000000     0.400000000000     0.004400000000     0          
O        O      0.863700000000     0.549980000000     0.441750000000     0          
O        O      0.756600000000     0.500000000000     0.201100000000     0          
O        O      0.716150000000     0.449980000000     0.147550000000     0          
O        O      0.708000000000     0.500000000000     0.218850000000     0          
O        O      0.697300000000     0.550000000000     0.288350000000     0          
O        O      0.664950000000     0.400000000000     0.329300000000     0          
O        O      0.620400000000     0.450000000000     0.334000000000     0          
O        O      0.648100000000     0.400000000000     0.405550000000     0          
O        O      0.682450000000     0.400000000000     0.082150000000     0          
O        O      0.674900000000     0.400000000000     0.166000000000     0          
O        O      0.655050000000     0.400000000000     0.239250000000     0          
O        O      0.654200000000     0.400000000000     0.495600000000     0          
O        O      0.636300000000     0.549980000000     0.058250000000     0          
O        O      0.716150000000     0.550020000000     0.147550000000     0          
O        O      0.697300000000     0.450000000000     0.288350000000     0          
O        O      0.620400000000     0.550000000000     0.334000000000     0          
O        O      0.636300000000     0.450020000000     0.058250000000     0          
O        O      0.783850000000     0.550020000000     0.352450000000     0          
O        O      0.802700000000     0.450000000000     0.211650000000     0          
O        O      0.879600000000     0.550000000000     0.166000000000     0          
O        O      0.863700000000     0.450020000000     0.441750000000     0          
O        O      0.993400000000     0.400000000000     0.298900000000     0          
O        O      0.533850000000     0.549980000000     0.352450000000     0          
O        O      0.542000000000     0.400000000000     0.281150000000     0          
O        O      0.552700000000     0.450000000000     0.211650000000     0          
O        O      0.585050000000     0.500000000000     0.170700000000     0          
O        O      0.629600000000     0.550000000000     0.166000000000     0          
O        O      0.601900000000     0.500000000000     0.094450000000     0          
O        O      0.567550000000     0.500000000000     0.417850000000     0          
O        O      0.575100000000     0.500000000000     0.334000000000     0          
O        O      0.594950000000     0.500000000000     0.260750000000     0          
O        O      0.595800000000     0.500000000000     0.004400000000     0          
O        O      0.613700000000     0.449980000000     0.441750000000     0          
O        O      0.506600000000     0.400000000000     0.201100000000     0          
O        O      0.966150000000     0.549980000000     0.147550000000     0          
O        O      0.958000000000     0.400000000000     0.218850000000     0          
O        O      0.947300000000     0.450000000000     0.288350000000     0          
O        O      0.914950000000     0.500000000000     0.329300000000     0          
O        O      0.870400000000     0.550000000000     0.334000000000     0          
O        O      0.898100000000     0.500000000000     0.405550000000     0          
O        O      0.932450000000     0.500000000000     0.082150000000     0          
O        O      0.924900000000     0.500000000000     0.166000000000     0          
O        O      0.905050000000     0.500000000000     0.239250000000     0          
O        O      0.904200000000     0.500000000000     0.495600000000     0          
O        O      0.886300000000     0.449980000000     0.058250000000     0          
O        O      0.966150000000     0.450020000000     0.147550000000     0          
O        O      0.947300000000     0.550000000000     0.288350000000     0          
O        O      0.870400000000     0.450000000000     0.334000000000     0          
O        O      0.886300000000     0.550020000000     0.058250000000     0          
O        O      0.533850000000     0.450020000000     0.352450000000     0          
O        O      0.552700000000     0.550000000000     0.211650000000     0          
O        O      0.629600000000     0.450000000000     0.166000000000     0          
O        O      0.613700000000     0.550020000000     0.441750000000     0          
O        O      0.743400000000     0.500000000000     0.798900000000     0          
O        O      0.783850000000     0.449980000000     0.852450000000     0          
O        O      0.792000000000     0.500000000000     0.781150000000     0          
O        O      0.802700000000     0.550000000000     0.711650000000     0          
O        O      0.835050000000     0.400000000000     0.670700000000     0          
O        O      0.879600000000     0.450000000000     0.666000000000     0          
O        O      0.851900000000     0.400000000000     0.594450000000     0          
O        O      0.817550000000     0.400000000000     0.917850000000     0          
O        O      0.825100000000     0.400000000000     0.834000000000     0          
O        O      0.844950000000     0.400000000000     0.760750000000     0          
O        O      0.845800000000     0.400000000000     0.504400000000     0          
O        O      0.863700000000     0.549980000000     0.941750000000     0          
O        O      0.756600000000     0.500000000000     0.701100000000     0          
O        O      0.716150000000     0.449980000000     0.647550000000     0          
O        O      0.708000000000     0.500000000000     0.718850000000     0          
O        O      0.697300000000     0.550000000000     0.788350000000     0          
O        O      0.664950000000     0.400000000000     0.829300000000     0          
O        O      0.620400000000     0.450000000000     0.834000000000     0          
O        O      0.648100000000     0.400000000000     0.905550000000     0          
O        O      0.682450000000     0.400000000000     0.582150000000     0          
O        O      0.674900000000     0.400000000000     0.666000000000     0          
O        O      0.655050000000     0.400000000000     0.739250000000     0          
O        O      0.654200000000     0.400000000000     0.995600000000     0          
O        O      0.636300000000     0.549980000000     0.558250000000     0          
O        O      0.716150000000     0.550020000000     0.647550000000     0          
O        O      0.697300000000     0.450000000000     0.788350000000     0          
O        O      0.620400000000     0.550000000000     0.834000000000     0          
O        O      0.636300000000     0.450020000000     0.558250000000     0          
O        O      0.783850000000     0.550020000000     0.852450000000     0          
O        O      0.802700000000     0.450000000000     0.711650000000     0          
O        O      0.879600000000     0.550000000000     0.666000000000     0          
O        O      0.863700000000     0.450020000000     0.941750000000     0          
O        O      0.993400000000     0.400000000000     0.798900000000     0          
O        O      0.533850000000     0.549980000000     0.852450000000     0          
O        O      0.542000000000     0.400000000000     0.781150000000     0          
O        O      0.552700000000     0.450000000000     0.711650000000     0          
O        O      0.585050000000     0.500000000000     0.670700000000     0          
O        O      0.629600000000     0.550000000000     0.666000000000     0          
O        O      0.601900000000     0.500000000000     0.594450000000     0          
O        O      0.567550000000     0.500000000000     0.917850000000     0          
O        O      0.575100000000     0.500000000000     0.834000000000     0          
O        O      0.594950000000     0.500000000000     0.760750000000     0          
O        O      0.595800000000     0.500000000000     0.504400000000     0          
O        O      0.613700000000     0.449980000000     0.941750000000     0          
O        O      0.506600000000     0.400000000000     0.701100000000     0          
O        O      0.966150000000     0.549980000000     0.647550000000     0          
O        O      0.958000000000     0.400000000000     0.718850000000     0          
O        O      0.947300000000     0.450000000000     0.788350000000     0          
O        O      0.914950000000     0.500000000000     0.829300000000     0          
O        O      0.870400000000     0.550000000000     0.834000000000     0          
O        O      0.898100000000     0.500000000000     0.905550000000     0          
O        O      0.932450000000     0.500000000000     0.582150000000     0          
O        O      0.924900000000     0.500000000000     0.666000000000     0          
O        O      0.905050000000     0.500000000000     0.739250000000     0          
O        O      0.904200000000     0.500000000000     0.995600000000     0          
O        O      0.886300000000     0.449980000000     0.558250000000     0          
O        O      0.966150000000     0.450020000000     0.647550000000     0          
O        O      0.947300000000     0.550000000000     0.788350000000     0          
O        O      0.870400000000     0.450000000000     0.834000000000     0          
O        O      0.886300000000     0.550020000000     0.558250000000     0          
O        O      0.533850000000     0.450020000000     0.852450000000     0          
O        O      0.552700000000     0.550000000000     0.711650000000     0          
O        O      0.629600000000     0.450000000000     0.666000000000     0          
O        O      0.613700000000     0.550020000000     0.941750000000     0          
O        O      0.743400000000     0.700000000000     0.298900000000     0          
O        O      0.783850000000     0.649980000000     0.352450000000     0          
O        O      0.792000000000     0.700000000000     0.281150000000     0          
O        O      0.802700000000     0.750000000000     0.211650000000     0          
O        O      0.835050000000     0.600000000000     0.170700000000     0          
O        O      0.879600000000     0.650000000000     0.166000000000     0          
O        O      0.851900000000     0.600000000000     0.094450000000     0          
O        O      0.817550000000     0.600000000000     0.417850000000     0          
O        O      0.825100000000     0.600000000000     0.334000000000     0          
O        O      0.844950000000     0.600000000000     0.260750000000     0          
O        O      0.845800000000     0.600000000000     0.004400000000     0          
O        O      0.863700000000     0.749980000000     0.441750000000     0          
O        O      0.756600000000     0.700000000000     0.201100000000     0          
O        O      0.716150000000     0.649980000000     0.147550000000     0          
O        O      0.708000000000     0.700000000000     0.218850000000     0          
O        O      0.697300000000     0.750000000000     0.288350000000     0          
O        O      0.664950000000     0.600000000000     0.329300000000     0          
O        O      0.620400000000     0.650000000000     0.334000000000     0          
O        O      0.648100000000     0.600000000000     0.405550000000     0          
O        O      0.682450000000     0.600000000000     0.082150000000     0          
O        O      0.674900000000     0.600000000000     0.166000000000     0          
O        O      0.655050000000     0.600000000000     0.239250000000     0          
O        O      0.654200000000     0.600000000000     0.495600000000     0          
O        O      0.636300000000     0.749980000000     0.058250000000     0          
O        O      0.716150000000     0.750020000000     0.147550000000     0          
O        O      0.697300000000     0.650000000000     0.288350000000     0          
O        O      0.620400000000     0.750000000000     0.334000000000     0          
O        O      0.636300000000     0.650020000000     0.058250000000     0          
O        O      0.783850000000     0.750020000000     0.352450000000     0          
O        O      0.802700000000     0.650000000000     0.211650000000     0          
O        O      0.879600000000     0.750000000000     0.166000000000     0          
O        O      0.863700000000     0.650020000000     0.441750000000     0          
O        O      0.993400000000     0.600000000000     0.298900000000     0          
O        O      0.533850000000     0.749980000000     0.352450000000     0          
O        O      0.542000000000     0.600000000000     0.281150000000     0          
O        O      0.552700000000     0.650000000000     0.211650000000     0          
O        O      0.585050000000     0.700000000000     0.170700000000     0          
O        O      0.629600000000     0.750000000000     0.166000000000     0          
O        O      0.601900000000     0.700000000000     0.094450000000     0          
O        O      0.567550000000     0.700000000000     0.417850000000     0          
O        O      0.575100000000     0.700000000000     0.334000000000     0          
O        O      0.594950000000     0.700000000000     0.260750000000     0          
O        O      0.595800000000     0.700000000000     0.004400000000     0          
O        O      0.613700000000     0.649980000000     0.441750000000     0          
O        O      0.506600000000     0.600000000000     0.201100000000     0          
O        O      0.966150000000     0.749980000000     0.147550000000     0          
O        O      0.958000000000     0.600000000000     0.218850000000     0          
O        O      0.947300000000     0.650000000000     0.288350000000     0          
O        O      0.914950000000     0.700000000000     0.329300000000     0          
O        O      0.870400000000     0.750000000000     0.334000000000     0          
O        O      0.898100000000     0.700000000000     0.405550000000     0          
O        O      0.932450000000     0.700000000000     0.082150000000     0          
O        O      0.924900000000     0.700000000000     0.166000000000     0          
O        O      0.905050000000     0.700000000000     0.239250000000     0          
O        O      0.904200000000     0.700000000000     0.495600000000     0          
O        O      0.886300000000     0.649980000000     0.058250000000     0          
O        O      0.966150000000     0.650020000000     0.147550000000     0          
O        O      0.947300000000     0.750000000000     0.288350000000     0          
O        O      0.870400000000     0.650000000000     0.334000000000     0          
O        O      0.886300000000     0.750020000000     0.058250000000     0          
O        O      0.533850000000     0.650020000000     0.352450000000     0          
O        O      0.552700000000     0.750000000000     0.211650000000     0          
O        O      0.629600000000     0.650000000000     0.166000000000     0          
O        O      0.613700000000     0.750020000000     0.441750000000     0          
O        O      0.743400000000     0.700000000000     0.798900000000     0          
O        O      0.783850000000     0.649980000000     0.852450000000     0          
O        O      0.792000000000     0.700000000000     0.781150000000     0          
O        O      0.802700000000     0.750000000000     0.711650000000     0          
O        O      0.835050000000     0.600000000000     0.670700000000     0          
O        O      0.879600000000     0.650000000000     0.666000000000     0          
O        O      0.851900000000     0.600000000000     0.594450000000     0          
O        O      0.817550000000     0.600000000000     0.917850000000     0          
O        O      0.825100000000     0.600000000000     0.834000000000     0          
O        O      0.844950000000     0.600000000000     0.760750000000     0          
O        O      0.845800000000     0.600000000000     0.504400000000     0          
O        O      0.863700000000     0.749980000000     0.941750000000     0          
O        O      0.756600000000     0.700000000000     0.701100000000     0          
O        O      0.716150000000     0.649980000000     0.647550000000     0          
O        O      0.708000000000     0.700000000000     0.718850000000     0          
O        O      0.697300000000     0.750000000000     0.788350000000     0          
O        O      0.664950000000     0.600000000000     0.829300000000     0          
O        O      0.620400000000     0.650000000000     0.834000000000     0          
O        O      0.648100000000     0.600000000000     0.905550000000     0          
O        O      0.682450000000     0.600000000000     0.582150000000     0          
O        O      0.674900000000     0.600000000000     0.666000000000     0          
O        O      0.655050000000     0.600000000000     0.739250000000     0          
O        O      0.654200000000     0.600000000000     0.995600000000     0          
O        O      0.636300000000     0.749980000000     0.558250000000     0          
O        O      0.716150000000     0.750020000000     0.647550000000     0          
O        O      0.697300000000     0.650000000000     0.788350000000     0          
O        O      0.620400000000     0.750000000000     0.834000000000     0          
O        O      0.636300000000     0.650020000000     0.558250000000     0          
O        O      0.783850000000     0.750020000000     0.852450000000     0          
O        O      0.802700000000     0.650000000000     0.711650000000     0          
O        O      0.879600000000     0.750000000000     0.666000000000     0          
O        O      0.863700000000     0.650020000000     0.941750000000     0          
O        O      0.993400000000     0.600000000000     0.798900000000     0          
O        O      0.533850000000     0.749980000000     0.852450000000     0          
O        O      0.542000000000     0.600000000000     0.781150000000     0          
O        O      0.552700000000     0.650000000000     0.711650000000     0          
O        O      0.585050000000     0.700000000000     0.670700000000     0          
O        O      0.629600000000     0.750000000000     0.666000000000     0          
O        O      0.601900000000     0.700000000000     0.594450000000     0          
O        O      0.567550000000     0.700000000000     0.917850000000     0          
O        O      0.575100000000     0.700000000000     0.834000000000     0          
O        O      0.594950000000     0.700000000000     0.760750000000     0          
O        O      0.595800000000     0.700000000000     0.504400000000     0          
O        O      0.613700000000     0.649980000000     0.941750000000     0          
O        O      0.506600000000     0.600000000000     0.701100000000     0          
O        O      0.966150000000     0.749980000000     0.647550000000     0          
O        O      0.958000000000     0.600000000000     0.718850000000     0          
O        O      0.947300000000     0.650000000000     0.788350000000     0          
O        O      0.914950000000     0.700000000000     0.829300000000     0          
O        O      0.870400000000     0.750000000000     0.834000000000     0          
O        O      0.898100000000     0.700000000000     0.905550000000     0          
O        O      0.932450000000     0.700000000000     0.582150000000     0          
O        O      0.924900000000     0.700000000000     0.666000000000     0          
O        O      0.905050000000     0.700000000000     0.739250000000     0          
O        O      0.904200000000     0.700000000000     0.995600000000     0          
O        O      0.886300000000     0.649980000000     0.558250000000     0          
O        O      0.966150000000     0.650020000000     0.647550000000     0          
O        O      0.947300000000     0.750000000000     0.788350000000     0          
O        O      0.870400000000     0.650000000000     0.834000000000     0          
O        O      0.886300000000     0.750020000000     0.558250000000     0          
O        O      0.533850000000     0.650020000000     0.852450000000     0          
O        O      0.552700000000     0.750000000000     0.711650000000     0          
O        O      0.629600000000     0.650000000000     0.666000000000     0          
O        O      0.613700000000     0.750020000000     0.941750000000     0          
O        O      0.743400000000     0.900000000000     0.298900000000     0          
O        O      0.783850000000     0.849980000000     0.352450000000     0          
O        O      0.792000000000     0.900000000000     0.281150000000     0          
O        O      0.802700000000     0.950000000000     0.211650000000     0          
O        O      0.835050000000     0.800000000000     0.170700000000     0          
O        O      0.879600000000     0.850000000000     0.166000000000     0          
O        O      0.851900000000     0.800000000000     0.094450000000     0          
O        O      0.817550000000     0.800000000000     0.417850000000     0          
O        O      0.825100000000     0.800000000000     0.334000000000     0          
O        O      0.844950000000     0.800000000000     0.260750000000     0          
O        O      0.845800000000     0.800000000000     0.004400000000     0          
O        O      0.863700000000     0.949980000000     0.441750000000     0          
O        O      0.756600000000     0.900000000000     0.201100000000     0          
O        O      0.716150000000     0.849980000000     0.147550000000     0          
O        O      0.708000000000     0.900000000000     0.218850000000     0          
O        O      0.697300000000     0.950000000000     0.288350000000     0          
O        O      0.664950000000     0.800000000000     0.329300000000     0          
O        O      0.620400000000     0.850000000000     0.334000000000     0          
O        O      0.648100000000     0.800000000000     0.405550000000     0          
O        O      0.682450000000     0.800000000000     0.082150000000     0          
O        O      0.674900000000     0.800000000000     0.166000000000     0          
O        O      0.655050000000     0.800000000000     0.239250000000     0          
O        O      0.654200000000     0.800000000000     0.495600000000     0          
O        O      0.636300000000     0.949980000000     0.058250000000     0          
O        O      0.716150000000     0.950020000000     0.147550000000     0          
O        O      0.697300000000     0.850000000000     0.288350000000     0          
O        O      0.620400000000     0.950000000000     0.334000000000     0          
O        O      0.636300000000     0.850020000000     0.058250000000     0          
O        O      0.783850000000     0.950020000000     0.352450000000     0          
O        O      0.802700000000     0.850000000000     0.211650000000     0          
O        O      0.879600000000     0.950000000000     0.166000000000     0          
O        O      0.863700000000     0.850020000000     0.441750000000     0          
O        O      0.993400000000     0.800000000000     0.298900000000     0          
O        O      0.533850000000     0.949980000000     0.352450000000     0          
O        O      0.542000000000     0.800000000000     0.281150000000     0          
O        O      0.552700000000     0.850000000000     0.211650000000     0          
O        O      0.585050000000     0.900000000000     0.170700000000     0          
O        O      0.629600000000     0.950000000000     0.166000000000     0          
O        O      0.601900000000     0.900000000000     0.094450000000     0          
O        O      0.567550000000     0.900000000000     0.417850000000     0          
O        O      0.575100000000     0.900000000000     0.334000000000     0          
O        O      0.594950000000     0.900000000000     0.260750000000     0          
O        O      0.595800000000     0.900000000000     0.004400000000     0          
O        O      0.613700000000     0.849980000000     0.441750000000     0          
O        O      0.506600000000     0.800000000000     0.201100000000     0          
O        O      0.966150000000     0.949980000000     0.147550000000     0          
O        O      0.958000000000     0.800000000000     0.218850000000     0          
O        O      0.947300000000     0.850000000000     0.288350000000     0          
O        O      0.914950000000     0.900000000000     0.329300000000     0          
O        O      0.870400000000     0.950000000000     0.334000000000     0          
O        O      0.898100000000     0.900000000000     0.405550000000     0          
O        O      0.932450000000     0.900000000000     0.082150000000     0          
O        O      0.924900000000     0.900000000000     0.166000000000     0          
O        O      0.905050000000     0.900000000000     0.239250000000     0          
O        O      0.904200000000     0.900000000000     0.495600000000     0          
O        O      0.886300000000     0.849980000000     0.058250000000     0          
O        O      0.966150000000     0.850020000000     0.147550000000     0          
O        O      0.947300000000     0.950000000000     0.288350000000     0          
O        O      0.870400000000     0.850000000000     0.334000000000     0          
O        O      0.886300000000     0.950020000000     0.058250000000     0          
O        O      0.533850000000     0.850020000000     0.352450000000     0          
O        O      0.552700000000     0.950000000000     0.211650000000     0          
O        O      0.629600000000     0.850000000000     0.166000000000     0          
O        O      0.613700000000     0.950020000000     0.441750000000     0          
O        O      0.743400000000     0.900000000000     0.798900000000     0          
O        O      0.783850000000     0.849980000000     0.852450000000     0          
O        O      0.792000000000     0.900000000000     0.781150000000     0          
O        O      0.802700000000     0.950000000000     0.711650000000     0          
O        O      0.835050000000     0.800000000000     0.670700000000     0          
O        O      0.879600000000     0.850000000000     0.666000000000     0          
O        O      0.851900000000     0.800000000000     0.594450000000     0          
O        O      0.817550000000     0.800000000000     0.917850000000     0          
O        O      0.825100000000     0.800000000000     0.834000000000     0          
O        O      0.844950000000     0.800000000000     0.760750000000     0          
O        O      0.845800000000     0.800000000000     0.504400000000     0          
O        O      0.863700000000     0.949980000000     0.941750000000     0          
O        O      0.756600000000     0.900000000000     0.701100000000     0          
O        O      0.716150000000     0.849980000000     0.647550000000     0          
O        O      0.708000000000     0.900000000000     0.718850000000     0          
O        O      0.697300000000     0.950000000000     0.788350000000     0          
O        O      0.664950000000     0.800000000000     0.829300000000     0          
O        O      0.620400000000     0.850000000000     0.834000000000     0          
O        O      0.648100000000     0.800000000000     0.905550000000     0          
O        O      0.682450000000     0.800000000000     0.582150000000     0          
O        O      0.674900000000     0.800000000000     0.666000000000     0          
O        O      0.655050000000     0.800000000000     0.739250000000     0          
O        O      0.654200000000     0.800000000000     0.995600000000     0          
O        O      0.636300000000     0.949980000000     0.558250000000     0          
O        O      0.716150000000     0.950020000000     0.647550000000     0          
O        O      0.697300000000     0.850000000000     0.788350000000     0          
O        O      0.620400000000     0.950000000000     0.834000000000     0          
O        O      0.636300000000     0.850020000000     0.558250000000     0          
O        O      0.783850000000     0.950020000000     0.852450000000     0          
O        O      0.802700000000     0.850000000000     0.711650000000     0          
O        O      0.879600000000     0.950000000000     0.666000000000     0          
O        O      0.863700000000     0.850020000000     0.941750000000     0          
O        O      0.993400000000     0.800000000000     0.798900000000     0          
O        O      0.533850000000     0.949980000000     0.852450000000     0          
O        O      0.542000000000     0.800000000000     0.781150000000     0          
O        O      0.552700000000     0.850000000000     0.711650000000     0          
O        O      0.585050000000     0.900000000000     0.670700000000     0          
O        O      0.629600000000     0.950000000000     0.666000000000     0          
O        O      0.601900000000     0.900000000000     0.594450000000     0          
O        O      0.567550000000     0.900000000000     0.917850000000     0          
O        O      0.575100000000     0.900000000000     0.834000000000     0          
O        O      0.594950000000     0.900000000000     0.760750000000     0          
O        O      0.595800000000     0.900000000000     0.504400000000     0          
O        O      0.613700000000     0.849980000000     0.941750000000     0          
O        O      0.506600000000     0.800000000000     0.701100000000     0          
O        O      0.966150000000     0.949980000000     0.647550000000     0          
O        O      0.958000000000     0.800000000000     0.718850000000     0          
O        O      0.947300000000     0.850000000000     0.788350000000     0          
O        O      0.914950000000     0.900000000000     0.829300000000     0          
O        O      0.870400000000     0.950000000000     0.834000000000     0          
O        O      0.898100000000     0.900000000000     0.905550000000     0          
O        O      0.932450000000     0.900000000000     0.582150000000     0          
O        O      0.924900000000     0.900000000000     0.666000000000     0          
O        O      0.905050000000     0.900000000000     0.739250000000     0          
O        O      0.904200000000     0.900000000000     0.995600000000     0          
O        O      0.886300000000     0.849980000000     0.558250000000     0          
O        O      0.966150000000     0.850020000000     0.647550000000     0          
O        O      0.947300000000     0.950000000000     0.788350000000     0          
O        O      0.870400000000     0.850000000000     0.834000000000     0          
O        O      0.886300000000     0.950020000000     0.558250000000     0          
O        O      0.533850000000     0.850020000000     0.852450000000     0          
O        O      0.552700000000     0.950000000000     0.711650000000     0          
O        O      0.629600000000     0.850000000000     0.666000000000     0          
O        O      0.613700000000     0.950020000000     0.941750000000     0          


