data_zeolite

_audit_creation_method RASPA-1.0
_audit_creation_date 2021-6-6
_audit_author_name ''

_cell_length_a    35.046
_cell_length_b    35.288
_cell_length_c    29.604
_cell_angle_alpha 90
_cell_angle_beta  116.104
_cell_angle_gamma 90
_cell_volume      32876.9

_symmetry_cell_setting          monoclinic
_symmetry_space_group_name_Hall 'P 1'
_symmetry_space_group_name_H-M  'P 1'
_symmetry_Int_Tables_number     1

_symmetry_equiv_pos_as_xyz 'x,y,z'

loop_
_atom_site_label
_atom_site_type_symbol
_atom_site_fract_x
_atom_site_fract_y
_atom_site_fract_z
_atom_site_charge
O        O      0.041500000000     0.081250000000     0.016275000000     0          
O        O      0.117700000000     0.051950000000     0.065650000000     0          
O        O      0.093750000000     0.078600000000     0.224200000000     0          
O        O      0.108800000000     0.125350000000     0.049350000000     0          
O        O      0.062250000000     0.183250000000     0.102825000000     0          
O        O      0.098450000000     0.250000000000     0.114000000000     0          
O        O      0.134850000000     0.189950000000     0.097450000000     0          
O        O      0.060600000000     0.115150000000     0.138025000000     0          
O        O      0.000000000000     0.164000000000     0.125000000000     0          
O        O      0.004950000000     0.133900000000     0.046650000000     0          
T        Si     0.090450000000     0.084300000000     0.026350000000     0          
T        Si     0.107000000000     0.205350000000     0.124700000000     0          
T        Si     0.102650000000     0.094650000000     0.178875000000     0          
T        Si     0.032050000000     0.149050000000     0.103200000000     0          
T        Si     0.000000000000     0.107550000000     0.000000000000     0          
O        O      0.458500000000     0.081250000000     0.233725000000     0          
O        O      0.382300000000     0.051950000000     0.184350000000     0          
O        O      0.406250000000     0.078600000000     0.025800000000     0          
O        O      0.391200000000     0.125350000000     0.200650000000     0          
O        O      0.437750000000     0.183250000000     0.147175000000     0          
O        O      0.401550000000     0.250000000000     0.136000000000     0          
O        O      0.365150000000     0.189950000000     0.152550000000     0          
O        O      0.439400000000     0.115150000000     0.111975000000     0          
O        O      0.495050000000     0.133900000000     0.203350000000     0          
T        Si     0.409550000000     0.084300000000     0.223650000000     0          
T        Si     0.393000000000     0.205350000000     0.125300000000     0          
T        Si     0.397350000000     0.094650000000     0.071125000000     0          
T        Si     0.467950000000     0.149050000000     0.146800000000     0          
O        O      0.458500000000     0.418750000000     0.233725000000     0          
O        O      0.382300000000     0.448050000000     0.184350000000     0          
O        O      0.406250000000     0.421400000000     0.025800000000     0          
O        O      0.391200000000     0.374650000000     0.200650000000     0          
O        O      0.437750000000     0.316750000000     0.147175000000     0          
O        O      0.365150000000     0.310050000000     0.152550000000     0          
O        O      0.439400000000     0.384850000000     0.111975000000     0          
O        O      0.000000000000     0.336000000000     0.125000000000     0          
O        O      0.495050000000     0.366100000000     0.203350000000     0          
T        Si     0.409550000000     0.415700000000     0.223650000000     0          
T        Si     0.393000000000     0.294650000000     0.125300000000     0          
T        Si     0.397350000000     0.405350000000     0.071125000000     0          
T        Si     0.467950000000     0.350950000000     0.146800000000     0          
T        Si     0.000000000000     0.392450000000     0.000000000000     0          
O        O      0.041500000000     0.418750000000     0.016275000000     0          
O        O      0.117700000000     0.448050000000     0.065650000000     0          
O        O      0.093750000000     0.421400000000     0.224200000000     0          
O        O      0.108800000000     0.374650000000     0.049350000000     0          
O        O      0.062250000000     0.316750000000     0.102825000000     0          
O        O      0.134850000000     0.310050000000     0.097450000000     0          
O        O      0.060600000000     0.384850000000     0.138025000000     0          
O        O      0.004950000000     0.366100000000     0.046650000000     0          
T        Si     0.090450000000     0.415700000000     0.026350000000     0          
T        Si     0.107000000000     0.294650000000     0.124700000000     0          
T        Si     0.102650000000     0.405350000000     0.178875000000     0          
T        Si     0.032050000000     0.350950000000     0.103200000000     0          
O        O      0.291500000000     0.331250000000     0.016275000000     0          
O        O      0.367700000000     0.301950000000     0.065650000000     0          
O        O      0.343750000000     0.328600000000     0.224200000000     0          
O        O      0.358800000000     0.375350000000     0.049350000000     0          
O        O      0.312250000000     0.433250000000     0.102825000000     0          
O        O      0.348450000000     0.000000000000     0.114000000000     0          
O        O      0.384850000000     0.439950000000     0.097450000000     0          
O        O      0.310600000000     0.365150000000     0.138025000000     0          
O        O      0.250000000000     0.414000000000     0.125000000000     0          
O        O      0.254950000000     0.383900000000     0.046650000000     0          
T        Si     0.340450000000     0.334300000000     0.026350000000     0          
T        Si     0.357000000000     0.455350000000     0.124700000000     0          
T        Si     0.352650000000     0.344650000000     0.178875000000     0          
T        Si     0.282050000000     0.399050000000     0.103200000000     0          
T        Si     0.250000000000     0.357550000000     0.000000000000     0          
O        O      0.208500000000     0.331250000000     0.233725000000     0          
O        O      0.132300000000     0.301950000000     0.184350000000     0          
O        O      0.156250000000     0.328600000000     0.025800000000     0          
O        O      0.141200000000     0.375350000000     0.200650000000     0          
O        O      0.187750000000     0.433250000000     0.147175000000     0          
O        O      0.151550000000     0.000000000000     0.136000000000     0          
O        O      0.115150000000     0.439950000000     0.152550000000     0          
O        O      0.189400000000     0.365150000000     0.111975000000     0          
O        O      0.245050000000     0.383900000000     0.203350000000     0          
T        Si     0.159550000000     0.334300000000     0.223650000000     0          
T        Si     0.143000000000     0.455350000000     0.125300000000     0          
T        Si     0.147350000000     0.344650000000     0.071125000000     0          
T        Si     0.217950000000     0.399050000000     0.146800000000     0          
O        O      0.208500000000     0.168750000000     0.233725000000     0          
O        O      0.132300000000     0.198050000000     0.184350000000     0          
O        O      0.156250000000     0.171400000000     0.025800000000     0          
O        O      0.141200000000     0.124650000000     0.200650000000     0          
O        O      0.187750000000     0.066750000000     0.147175000000     0          
O        O      0.115150000000     0.060050000000     0.152550000000     0          
O        O      0.189400000000     0.134850000000     0.111975000000     0          
O        O      0.250000000000     0.086000000000     0.125000000000     0          
O        O      0.245050000000     0.116100000000     0.203350000000     0          
T        Si     0.159550000000     0.165700000000     0.223650000000     0          
T        Si     0.143000000000     0.044650000000     0.125300000000     0          
T        Si     0.147350000000     0.155350000000     0.071125000000     0          
T        Si     0.217950000000     0.100950000000     0.146800000000     0          
T        Si     0.250000000000     0.142450000000     0.000000000000     0          
O        O      0.291500000000     0.168750000000     0.016275000000     0          
O        O      0.367700000000     0.198050000000     0.065650000000     0          
O        O      0.343750000000     0.171400000000     0.224200000000     0          
O        O      0.358800000000     0.124650000000     0.049350000000     0          
O        O      0.312250000000     0.066750000000     0.102825000000     0          
O        O      0.384850000000     0.060050000000     0.097450000000     0          
O        O      0.310600000000     0.134850000000     0.138025000000     0          
O        O      0.254950000000     0.116100000000     0.046650000000     0          
T        Si     0.340450000000     0.165700000000     0.026350000000     0          
T        Si     0.357000000000     0.044650000000     0.124700000000     0          
T        Si     0.352650000000     0.155350000000     0.178875000000     0          
T        Si     0.282050000000     0.100950000000     0.103200000000     0          
O        O      0.041500000000     0.081250000000     0.266275000000     0          
O        O      0.117700000000     0.051950000000     0.315650000000     0          
O        O      0.093750000000     0.078600000000     0.474200000000     0          
O        O      0.108800000000     0.125350000000     0.299350000000     0          
O        O      0.062250000000     0.183250000000     0.352825000000     0          
O        O      0.098450000000     0.250000000000     0.364000000000     0          
O        O      0.134850000000     0.189950000000     0.347450000000     0          
O        O      0.060600000000     0.115150000000     0.388025000000     0          
O        O      0.000000000000     0.164000000000     0.375000000000     0          
O        O      0.004950000000     0.133900000000     0.296650000000     0          
T        Si     0.090450000000     0.084300000000     0.276350000000     0          
T        Si     0.107000000000     0.205350000000     0.374700000000     0          
T        Si     0.102650000000     0.094650000000     0.428875000000     0          
T        Si     0.032050000000     0.149050000000     0.353200000000     0          
T        Si     0.000000000000     0.107550000000     0.250000000000     0          
O        O      0.458500000000     0.081250000000     0.483725000000     0          
O        O      0.382300000000     0.051950000000     0.434350000000     0          
O        O      0.406250000000     0.078600000000     0.275800000000     0          
O        O      0.391200000000     0.125350000000     0.450650000000     0          
O        O      0.437750000000     0.183250000000     0.397175000000     0          
O        O      0.401550000000     0.250000000000     0.386000000000     0          
O        O      0.365150000000     0.189950000000     0.402550000000     0          
O        O      0.439400000000     0.115150000000     0.361975000000     0          
O        O      0.495050000000     0.133900000000     0.453350000000     0          
T        Si     0.409550000000     0.084300000000     0.473650000000     0          
T        Si     0.393000000000     0.205350000000     0.375300000000     0          
T        Si     0.397350000000     0.094650000000     0.321125000000     0          
T        Si     0.467950000000     0.149050000000     0.396800000000     0          
O        O      0.458500000000     0.418750000000     0.483725000000     0          
O        O      0.382300000000     0.448050000000     0.434350000000     0          
O        O      0.406250000000     0.421400000000     0.275800000000     0          
O        O      0.391200000000     0.374650000000     0.450650000000     0          
O        O      0.437750000000     0.316750000000     0.397175000000     0          
O        O      0.365150000000     0.310050000000     0.402550000000     0          
O        O      0.439400000000     0.384850000000     0.361975000000     0          
O        O      0.000000000000     0.336000000000     0.375000000000     0          
O        O      0.495050000000     0.366100000000     0.453350000000     0          
T        Si     0.409550000000     0.415700000000     0.473650000000     0          
T        Si     0.393000000000     0.294650000000     0.375300000000     0          
T        Si     0.397350000000     0.405350000000     0.321125000000     0          
T        Si     0.467950000000     0.350950000000     0.396800000000     0          
T        Si     0.000000000000     0.392450000000     0.250000000000     0          
O        O      0.041500000000     0.418750000000     0.266275000000     0          
O        O      0.117700000000     0.448050000000     0.315650000000     0          
O        O      0.093750000000     0.421400000000     0.474200000000     0          
O        O      0.108800000000     0.374650000000     0.299350000000     0          
O        O      0.062250000000     0.316750000000     0.352825000000     0          
O        O      0.134850000000     0.310050000000     0.347450000000     0          
O        O      0.060600000000     0.384850000000     0.388025000000     0          
O        O      0.004950000000     0.366100000000     0.296650000000     0          
T        Si     0.090450000000     0.415700000000     0.276350000000     0          
T        Si     0.107000000000     0.294650000000     0.374700000000     0          
T        Si     0.102650000000     0.405350000000     0.428875000000     0          
T        Si     0.032050000000     0.350950000000     0.353200000000     0          
O        O      0.291500000000     0.331250000000     0.266275000000     0          
O        O      0.367700000000     0.301950000000     0.315650000000     0          
O        O      0.343750000000     0.328600000000     0.474200000000     0          
O        O      0.358800000000     0.375350000000     0.299350000000     0          
O        O      0.312250000000     0.433250000000     0.352825000000     0          
O        O      0.348450000000     0.000000000000     0.364000000000     0          
O        O      0.384850000000     0.439950000000     0.347450000000     0          
O        O      0.310600000000     0.365150000000     0.388025000000     0          
O        O      0.250000000000     0.414000000000     0.375000000000     0          
O        O      0.254950000000     0.383900000000     0.296650000000     0          
T        Si     0.340450000000     0.334300000000     0.276350000000     0          
T        Si     0.357000000000     0.455350000000     0.374700000000     0          
T        Si     0.352650000000     0.344650000000     0.428875000000     0          
T        Si     0.282050000000     0.399050000000     0.353200000000     0          
T        Si     0.250000000000     0.357550000000     0.250000000000     0          
O        O      0.208500000000     0.331250000000     0.483725000000     0          
O        O      0.132300000000     0.301950000000     0.434350000000     0          
O        O      0.156250000000     0.328600000000     0.275800000000     0          
O        O      0.141200000000     0.375350000000     0.450650000000     0          
O        O      0.187750000000     0.433250000000     0.397175000000     0          
O        O      0.151550000000     0.000000000000     0.386000000000     0          
O        O      0.115150000000     0.439950000000     0.402550000000     0          
O        O      0.189400000000     0.365150000000     0.361975000000     0          
O        O      0.245050000000     0.383900000000     0.453350000000     0          
T        Si     0.159550000000     0.334300000000     0.473650000000     0          
T        Si     0.143000000000     0.455350000000     0.375300000000     0          
T        Si     0.147350000000     0.344650000000     0.321125000000     0          
T        Si     0.217950000000     0.399050000000     0.396800000000     0          
O        O      0.208500000000     0.168750000000     0.483725000000     0          
O        O      0.132300000000     0.198050000000     0.434350000000     0          
O        O      0.156250000000     0.171400000000     0.275800000000     0          
O        O      0.141200000000     0.124650000000     0.450650000000     0          
O        O      0.187750000000     0.066750000000     0.397175000000     0          
O        O      0.115150000000     0.060050000000     0.402550000000     0          
O        O      0.189400000000     0.134850000000     0.361975000000     0          
O        O      0.250000000000     0.086000000000     0.375000000000     0          
O        O      0.245050000000     0.116100000000     0.453350000000     0          
T        Si     0.159550000000     0.165700000000     0.473650000000     0          
T        Si     0.143000000000     0.044650000000     0.375300000000     0          
T        Si     0.147350000000     0.155350000000     0.321125000000     0          
T        Si     0.217950000000     0.100950000000     0.396800000000     0          
T        Si     0.250000000000     0.142450000000     0.250000000000     0          
O        O      0.291500000000     0.168750000000     0.266275000000     0          
O        O      0.367700000000     0.198050000000     0.315650000000     0          
O        O      0.343750000000     0.171400000000     0.474200000000     0          
O        O      0.358800000000     0.124650000000     0.299350000000     0          
O        O      0.312250000000     0.066750000000     0.352825000000     0          
O        O      0.384850000000     0.060050000000     0.347450000000     0          
O        O      0.310600000000     0.134850000000     0.388025000000     0          
O        O      0.254950000000     0.116100000000     0.296650000000     0          
T        Si     0.340450000000     0.165700000000     0.276350000000     0          
T        Si     0.357000000000     0.044650000000     0.374700000000     0          
T        Si     0.352650000000     0.155350000000     0.428875000000     0          
T        Si     0.282050000000     0.100950000000     0.353200000000     0          
O        O      0.041500000000     0.081250000000     0.516275000000     0          
O        O      0.117700000000     0.051950000000     0.565650000000     0          
O        O      0.093750000000     0.078600000000     0.724200000000     0          
O        O      0.108800000000     0.125350000000     0.549350000000     0          
O        O      0.062250000000     0.183250000000     0.602825000000     0          
O        O      0.098450000000     0.250000000000     0.614000000000     0          
O        O      0.134850000000     0.189950000000     0.597450000000     0          
O        O      0.060600000000     0.115150000000     0.638025000000     0          
O        O      0.000000000000     0.164000000000     0.625000000000     0          
O        O      0.004950000000     0.133900000000     0.546650000000     0          
T        Si     0.090450000000     0.084300000000     0.526350000000     0          
T        Si     0.107000000000     0.205350000000     0.624700000000     0          
T        Si     0.102650000000     0.094650000000     0.678875000000     0          
T        Si     0.032050000000     0.149050000000     0.603200000000     0          
T        Si     0.000000000000     0.107550000000     0.500000000000     0          
O        O      0.458500000000     0.081250000000     0.733725000000     0          
O        O      0.382300000000     0.051950000000     0.684350000000     0          
O        O      0.406250000000     0.078600000000     0.525800000000     0          
O        O      0.391200000000     0.125350000000     0.700650000000     0          
O        O      0.437750000000     0.183250000000     0.647175000000     0          
O        O      0.401550000000     0.250000000000     0.636000000000     0          
O        O      0.365150000000     0.189950000000     0.652550000000     0          
O        O      0.439400000000     0.115150000000     0.611975000000     0          
O        O      0.495050000000     0.133900000000     0.703350000000     0          
T        Si     0.409550000000     0.084300000000     0.723650000000     0          
T        Si     0.393000000000     0.205350000000     0.625300000000     0          
T        Si     0.397350000000     0.094650000000     0.571125000000     0          
T        Si     0.467950000000     0.149050000000     0.646800000000     0          
O        O      0.458500000000     0.418750000000     0.733725000000     0          
O        O      0.382300000000     0.448050000000     0.684350000000     0          
O        O      0.406250000000     0.421400000000     0.525800000000     0          
O        O      0.391200000000     0.374650000000     0.700650000000     0          
O        O      0.437750000000     0.316750000000     0.647175000000     0          
O        O      0.365150000000     0.310050000000     0.652550000000     0          
O        O      0.439400000000     0.384850000000     0.611975000000     0          
O        O      0.000000000000     0.336000000000     0.625000000000     0          
O        O      0.495050000000     0.366100000000     0.703350000000     0          
T        Si     0.409550000000     0.415700000000     0.723650000000     0          
T        Si     0.393000000000     0.294650000000     0.625300000000     0          
T        Si     0.397350000000     0.405350000000     0.571125000000     0          
T        Si     0.467950000000     0.350950000000     0.646800000000     0          
T        Si     0.000000000000     0.392450000000     0.500000000000     0          
O        O      0.041500000000     0.418750000000     0.516275000000     0          
O        O      0.117700000000     0.448050000000     0.565650000000     0          
O        O      0.093750000000     0.421400000000     0.724200000000     0          
O        O      0.108800000000     0.374650000000     0.549350000000     0          
O        O      0.062250000000     0.316750000000     0.602825000000     0          
O        O      0.134850000000     0.310050000000     0.597450000000     0          
O        O      0.060600000000     0.384850000000     0.638025000000     0          
O        O      0.004950000000     0.366100000000     0.546650000000     0          
T        Si     0.090450000000     0.415700000000     0.526350000000     0          
T        Si     0.107000000000     0.294650000000     0.624700000000     0          
T        Si     0.102650000000     0.405350000000     0.678875000000     0          
T        Si     0.032050000000     0.350950000000     0.603200000000     0          
O        O      0.291500000000     0.331250000000     0.516275000000     0          
O        O      0.367700000000     0.301950000000     0.565650000000     0          
O        O      0.343750000000     0.328600000000     0.724200000000     0          
O        O      0.358800000000     0.375350000000     0.549350000000     0          
O        O      0.312250000000     0.433250000000     0.602825000000     0          
O        O      0.348450000000     0.000000000000     0.614000000000     0          
O        O      0.384850000000     0.439950000000     0.597450000000     0          
O        O      0.310600000000     0.365150000000     0.638025000000     0          
O        O      0.250000000000     0.414000000000     0.625000000000     0          
O        O      0.254950000000     0.383900000000     0.546650000000     0          
T        Si     0.340450000000     0.334300000000     0.526350000000     0          
T        Si     0.357000000000     0.455350000000     0.624700000000     0          
T        Si     0.352650000000     0.344650000000     0.678875000000     0          
T        Si     0.282050000000     0.399050000000     0.603200000000     0          
T        Si     0.250000000000     0.357550000000     0.500000000000     0          
O        O      0.208500000000     0.331250000000     0.733725000000     0          
O        O      0.132300000000     0.301950000000     0.684350000000     0          
O        O      0.156250000000     0.328600000000     0.525800000000     0          
O        O      0.141200000000     0.375350000000     0.700650000000     0          
O        O      0.187750000000     0.433250000000     0.647175000000     0          
O        O      0.151550000000     0.000000000000     0.636000000000     0          
O        O      0.115150000000     0.439950000000     0.652550000000     0          
O        O      0.189400000000     0.365150000000     0.611975000000     0          
O        O      0.245050000000     0.383900000000     0.703350000000     0          
T        Si     0.159550000000     0.334300000000     0.723650000000     0          
T        Si     0.143000000000     0.455350000000     0.625300000000     0          
T        Si     0.147350000000     0.344650000000     0.571125000000     0          
T        Si     0.217950000000     0.399050000000     0.646800000000     0          
O        O      0.208500000000     0.168750000000     0.733725000000     0          
O        O      0.132300000000     0.198050000000     0.684350000000     0          
O        O      0.156250000000     0.171400000000     0.525800000000     0          
O        O      0.141200000000     0.124650000000     0.700650000000     0          
O        O      0.187750000000     0.066750000000     0.647175000000     0          
O        O      0.115150000000     0.060050000000     0.652550000000     0          
O        O      0.189400000000     0.134850000000     0.611975000000     0          
O        O      0.250000000000     0.086000000000     0.625000000000     0          
O        O      0.245050000000     0.116100000000     0.703350000000     0          
T        Si     0.159550000000     0.165700000000     0.723650000000     0          
T        Si     0.143000000000     0.044650000000     0.625300000000     0          
T        Si     0.147350000000     0.155350000000     0.571125000000     0          
T        Si     0.217950000000     0.100950000000     0.646800000000     0          
T        Si     0.250000000000     0.142450000000     0.500000000000     0          
O        O      0.291500000000     0.168750000000     0.516275000000     0          
O        O      0.367700000000     0.198050000000     0.565650000000     0          
O        O      0.343750000000     0.171400000000     0.724200000000     0          
O        O      0.358800000000     0.124650000000     0.549350000000     0          
O        O      0.312250000000     0.066750000000     0.602825000000     0          
O        O      0.384850000000     0.060050000000     0.597450000000     0          
O        O      0.310600000000     0.134850000000     0.638025000000     0          
O        O      0.254950000000     0.116100000000     0.546650000000     0          
T        Si     0.340450000000     0.165700000000     0.526350000000     0          
T        Si     0.357000000000     0.044650000000     0.624700000000     0          
T        Si     0.352650000000     0.155350000000     0.678875000000     0          
T        Si     0.282050000000     0.100950000000     0.603200000000     0          
O        O      0.041500000000     0.081250000000     0.766275000000     0          
O        O      0.117700000000     0.051950000000     0.815650000000     0          
O        O      0.093750000000     0.078600000000     0.974200000000     0          
O        O      0.108800000000     0.125350000000     0.799350000000     0          
O        O      0.062250000000     0.183250000000     0.852825000000     0          
O        O      0.098450000000     0.250000000000     0.864000000000     0          
O        O      0.134850000000     0.189950000000     0.847450000000     0          
O        O      0.060600000000     0.115150000000     0.888025000000     0          
O        O      0.000000000000     0.164000000000     0.875000000000     0          
O        O      0.004950000000     0.133900000000     0.796650000000     0          
T        Si     0.090450000000     0.084300000000     0.776350000000     0          
T        Si     0.107000000000     0.205350000000     0.874700000000     0          
T        Si     0.102650000000     0.094650000000     0.928875000000     0          
T        Si     0.032050000000     0.149050000000     0.853200000000     0          
T        Si     0.000000000000     0.107550000000     0.750000000000     0          
O        O      0.458500000000     0.081250000000     0.983725000000     0          
O        O      0.382300000000     0.051950000000     0.934350000000     0          
O        O      0.406250000000     0.078600000000     0.775800000000     0          
O        O      0.391200000000     0.125350000000     0.950650000000     0          
O        O      0.437750000000     0.183250000000     0.897175000000     0          
O        O      0.401550000000     0.250000000000     0.886000000000     0          
O        O      0.365150000000     0.189950000000     0.902550000000     0          
O        O      0.439400000000     0.115150000000     0.861975000000     0          
O        O      0.495050000000     0.133900000000     0.953350000000     0          
T        Si     0.409550000000     0.084300000000     0.973650000000     0          
T        Si     0.393000000000     0.205350000000     0.875300000000     0          
T        Si     0.397350000000     0.094650000000     0.821125000000     0          
T        Si     0.467950000000     0.149050000000     0.896800000000     0          
O        O      0.458500000000     0.418750000000     0.983725000000     0          
O        O      0.382300000000     0.448050000000     0.934350000000     0          
O        O      0.406250000000     0.421400000000     0.775800000000     0          
O        O      0.391200000000     0.374650000000     0.950650000000     0          
O        O      0.437750000000     0.316750000000     0.897175000000     0          
O        O      0.365150000000     0.310050000000     0.902550000000     0          
O        O      0.439400000000     0.384850000000     0.861975000000     0          
O        O      0.000000000000     0.336000000000     0.875000000000     0          
O        O      0.495050000000     0.366100000000     0.953350000000     0          
T        Si     0.409550000000     0.415700000000     0.973650000000     0          
T        Si     0.393000000000     0.294650000000     0.875300000000     0          
T        Si     0.397350000000     0.405350000000     0.821125000000     0          
T        Si     0.467950000000     0.350950000000     0.896800000000     0          
T        Si     0.000000000000     0.392450000000     0.750000000000     0          
O        O      0.041500000000     0.418750000000     0.766275000000     0          
O        O      0.117700000000     0.448050000000     0.815650000000     0          
O        O      0.093750000000     0.421400000000     0.974200000000     0          
O        O      0.108800000000     0.374650000000     0.799350000000     0          
O        O      0.062250000000     0.316750000000     0.852825000000     0          
O        O      0.134850000000     0.310050000000     0.847450000000     0          
O        O      0.060600000000     0.384850000000     0.888025000000     0          
O        O      0.004950000000     0.366100000000     0.796650000000     0          
T        Si     0.090450000000     0.415700000000     0.776350000000     0          
T        Si     0.107000000000     0.294650000000     0.874700000000     0          
T        Si     0.102650000000     0.405350000000     0.928875000000     0          
T        Si     0.032050000000     0.350950000000     0.853200000000     0          
O        O      0.291500000000     0.331250000000     0.766275000000     0          
O        O      0.367700000000     0.301950000000     0.815650000000     0          
O        O      0.343750000000     0.328600000000     0.974200000000     0          
O        O      0.358800000000     0.375350000000     0.799350000000     0          
O        O      0.312250000000     0.433250000000     0.852825000000     0          
O        O      0.348450000000     0.000000000000     0.864000000000     0          
O        O      0.384850000000     0.439950000000     0.847450000000     0          
O        O      0.310600000000     0.365150000000     0.888025000000     0          
O        O      0.250000000000     0.414000000000     0.875000000000     0          
O        O      0.254950000000     0.383900000000     0.796650000000     0          
T        Si     0.340450000000     0.334300000000     0.776350000000     0          
T        Si     0.357000000000     0.455350000000     0.874700000000     0          
T        Si     0.352650000000     0.344650000000     0.928875000000     0          
T        Si     0.282050000000     0.399050000000     0.853200000000     0          
T        Si     0.250000000000     0.357550000000     0.750000000000     0          
O        O      0.208500000000     0.331250000000     0.983725000000     0          
O        O      0.132300000000     0.301950000000     0.934350000000     0          
O        O      0.156250000000     0.328600000000     0.775800000000     0          
O        O      0.141200000000     0.375350000000     0.950650000000     0          
O        O      0.187750000000     0.433250000000     0.897175000000     0          
O        O      0.151550000000     0.000000000000     0.886000000000     0          
O        O      0.115150000000     0.439950000000     0.902550000000     0          
O        O      0.189400000000     0.365150000000     0.861975000000     0          
O        O      0.245050000000     0.383900000000     0.953350000000     0          
T        Si     0.159550000000     0.334300000000     0.973650000000     0          
T        Si     0.143000000000     0.455350000000     0.875300000000     0          
T        Si     0.147350000000     0.344650000000     0.821125000000     0          
T        Si     0.217950000000     0.399050000000     0.896800000000     0          
O        O      0.208500000000     0.168750000000     0.983725000000     0          
O        O      0.132300000000     0.198050000000     0.934350000000     0          
O        O      0.156250000000     0.171400000000     0.775800000000     0          
O        O      0.141200000000     0.124650000000     0.950650000000     0          
O        O      0.187750000000     0.066750000000     0.897175000000     0          
O        O      0.115150000000     0.060050000000     0.902550000000     0          
O        O      0.189400000000     0.134850000000     0.861975000000     0          
O        O      0.250000000000     0.086000000000     0.875000000000     0          
O        O      0.245050000000     0.116100000000     0.953350000000     0          
T        Si     0.159550000000     0.165700000000     0.973650000000     0          
T        Si     0.143000000000     0.044650000000     0.875300000000     0          
T        Si     0.147350000000     0.155350000000     0.821125000000     0          
T        Si     0.217950000000     0.100950000000     0.896800000000     0          
T        Si     0.250000000000     0.142450000000     0.750000000000     0          
O        O      0.291500000000     0.168750000000     0.766275000000     0          
O        O      0.367700000000     0.198050000000     0.815650000000     0          
O        O      0.343750000000     0.171400000000     0.974200000000     0          
O        O      0.358800000000     0.124650000000     0.799350000000     0          
O        O      0.312250000000     0.066750000000     0.852825000000     0          
O        O      0.384850000000     0.060050000000     0.847450000000     0          
O        O      0.310600000000     0.134850000000     0.888025000000     0          
O        O      0.254950000000     0.116100000000     0.796650000000     0          
T        Si     0.340450000000     0.165700000000     0.776350000000     0          
T        Si     0.357000000000     0.044650000000     0.874700000000     0          
T        Si     0.352650000000     0.155350000000     0.928875000000     0          
T        Si     0.282050000000     0.100950000000     0.853200000000     0          
O        O      0.041500000000     0.581250000000     0.016275000000     0          
O        O      0.117700000000     0.551950000000     0.065650000000     0          
O        O      0.093750000000     0.578600000000     0.224200000000     0          
O        O      0.108800000000     0.625350000000     0.049350000000     0          
O        O      0.062250000000     0.683250000000     0.102825000000     0          
O        O      0.098450000000     0.750000000000     0.114000000000     0          
O        O      0.134850000000     0.689950000000     0.097450000000     0          
O        O      0.060600000000     0.615150000000     0.138025000000     0          
O        O      0.000000000000     0.664000000000     0.125000000000     0          
O        O      0.004950000000     0.633900000000     0.046650000000     0          
T        Si     0.090450000000     0.584300000000     0.026350000000     0          
T        Si     0.107000000000     0.705350000000     0.124700000000     0          
T        Si     0.102650000000     0.594650000000     0.178875000000     0          
T        Si     0.032050000000     0.649050000000     0.103200000000     0          
T        Si     0.000000000000     0.607550000000     0.000000000000     0          
O        O      0.458500000000     0.581250000000     0.233725000000     0          
O        O      0.382300000000     0.551950000000     0.184350000000     0          
O        O      0.406250000000     0.578600000000     0.025800000000     0          
O        O      0.391200000000     0.625350000000     0.200650000000     0          
O        O      0.437750000000     0.683250000000     0.147175000000     0          
O        O      0.401550000000     0.750000000000     0.136000000000     0          
O        O      0.365150000000     0.689950000000     0.152550000000     0          
O        O      0.439400000000     0.615150000000     0.111975000000     0          
O        O      0.495050000000     0.633900000000     0.203350000000     0          
T        Si     0.409550000000     0.584300000000     0.223650000000     0          
T        Si     0.393000000000     0.705350000000     0.125300000000     0          
T        Si     0.397350000000     0.594650000000     0.071125000000     0          
T        Si     0.467950000000     0.649050000000     0.146800000000     0          
O        O      0.458500000000     0.918750000000     0.233725000000     0          
O        O      0.382300000000     0.948050000000     0.184350000000     0          
O        O      0.406250000000     0.921400000000     0.025800000000     0          
O        O      0.391200000000     0.874650000000     0.200650000000     0          
O        O      0.437750000000     0.816750000000     0.147175000000     0          
O        O      0.365150000000     0.810050000000     0.152550000000     0          
O        O      0.439400000000     0.884850000000     0.111975000000     0          
O        O      0.000000000000     0.836000000000     0.125000000000     0          
O        O      0.495050000000     0.866100000000     0.203350000000     0          
T        Si     0.409550000000     0.915700000000     0.223650000000     0          
T        Si     0.393000000000     0.794650000000     0.125300000000     0          
T        Si     0.397350000000     0.905350000000     0.071125000000     0          
T        Si     0.467950000000     0.850950000000     0.146800000000     0          
T        Si     0.000000000000     0.892450000000     0.000000000000     0          
O        O      0.041500000000     0.918750000000     0.016275000000     0          
O        O      0.117700000000     0.948050000000     0.065650000000     0          
O        O      0.093750000000     0.921400000000     0.224200000000     0          
O        O      0.108800000000     0.874650000000     0.049350000000     0          
O        O      0.062250000000     0.816750000000     0.102825000000     0          
O        O      0.134850000000     0.810050000000     0.097450000000     0          
O        O      0.060600000000     0.884850000000     0.138025000000     0          
O        O      0.004950000000     0.866100000000     0.046650000000     0          
T        Si     0.090450000000     0.915700000000     0.026350000000     0          
T        Si     0.107000000000     0.794650000000     0.124700000000     0          
T        Si     0.102650000000     0.905350000000     0.178875000000     0          
T        Si     0.032050000000     0.850950000000     0.103200000000     0          
O        O      0.291500000000     0.831250000000     0.016275000000     0          
O        O      0.367700000000     0.801950000000     0.065650000000     0          
O        O      0.343750000000     0.828600000000     0.224200000000     0          
O        O      0.358800000000     0.875350000000     0.049350000000     0          
O        O      0.312250000000     0.933250000000     0.102825000000     0          
O        O      0.348450000000     0.500000000000     0.114000000000     0          
O        O      0.384850000000     0.939950000000     0.097450000000     0          
O        O      0.310600000000     0.865150000000     0.138025000000     0          
O        O      0.250000000000     0.914000000000     0.125000000000     0          
O        O      0.254950000000     0.883900000000     0.046650000000     0          
T        Si     0.340450000000     0.834300000000     0.026350000000     0          
T        Si     0.357000000000     0.955350000000     0.124700000000     0          
T        Si     0.352650000000     0.844650000000     0.178875000000     0          
T        Si     0.282050000000     0.899050000000     0.103200000000     0          
T        Si     0.250000000000     0.857550000000     0.000000000000     0          
O        O      0.208500000000     0.831250000000     0.233725000000     0          
O        O      0.132300000000     0.801950000000     0.184350000000     0          
O        O      0.156250000000     0.828600000000     0.025800000000     0          
O        O      0.141200000000     0.875350000000     0.200650000000     0          
O        O      0.187750000000     0.933250000000     0.147175000000     0          
O        O      0.151550000000     0.500000000000     0.136000000000     0          
O        O      0.115150000000     0.939950000000     0.152550000000     0          
O        O      0.189400000000     0.865150000000     0.111975000000     0          
O        O      0.245050000000     0.883900000000     0.203350000000     0          
T        Si     0.159550000000     0.834300000000     0.223650000000     0          
T        Si     0.143000000000     0.955350000000     0.125300000000     0          
T        Si     0.147350000000     0.844650000000     0.071125000000     0          
T        Si     0.217950000000     0.899050000000     0.146800000000     0          
O        O      0.208500000000     0.668750000000     0.233725000000     0          
O        O      0.132300000000     0.698050000000     0.184350000000     0          
O        O      0.156250000000     0.671400000000     0.025800000000     0          
O        O      0.141200000000     0.624650000000     0.200650000000     0          
O        O      0.187750000000     0.566750000000     0.147175000000     0          
O        O      0.115150000000     0.560050000000     0.152550000000     0          
O        O      0.189400000000     0.634850000000     0.111975000000     0          
O        O      0.250000000000     0.586000000000     0.125000000000     0          
O        O      0.245050000000     0.616100000000     0.203350000000     0          
T        Si     0.159550000000     0.665700000000     0.223650000000     0          
T        Si     0.143000000000     0.544650000000     0.125300000000     0          
T        Si     0.147350000000     0.655350000000     0.071125000000     0          
T        Si     0.217950000000     0.600950000000     0.146800000000     0          
T        Si     0.250000000000     0.642450000000     0.000000000000     0          
O        O      0.291500000000     0.668750000000     0.016275000000     0          
O        O      0.367700000000     0.698050000000     0.065650000000     0          
O        O      0.343750000000     0.671400000000     0.224200000000     0          
O        O      0.358800000000     0.624650000000     0.049350000000     0          
O        O      0.312250000000     0.566750000000     0.102825000000     0          
O        O      0.384850000000     0.560050000000     0.097450000000     0          
O        O      0.310600000000     0.634850000000     0.138025000000     0          
O        O      0.254950000000     0.616100000000     0.046650000000     0          
T        Si     0.340450000000     0.665700000000     0.026350000000     0          
T        Si     0.357000000000     0.544650000000     0.124700000000     0          
T        Si     0.352650000000     0.655350000000     0.178875000000     0          
T        Si     0.282050000000     0.600950000000     0.103200000000     0          
O        O      0.041500000000     0.581250000000     0.266275000000     0          
O        O      0.117700000000     0.551950000000     0.315650000000     0          
O        O      0.093750000000     0.578600000000     0.474200000000     0          
O        O      0.108800000000     0.625350000000     0.299350000000     0          
O        O      0.062250000000     0.683250000000     0.352825000000     0          
O        O      0.098450000000     0.750000000000     0.364000000000     0          
O        O      0.134850000000     0.689950000000     0.347450000000     0          
O        O      0.060600000000     0.615150000000     0.388025000000     0          
O        O      0.000000000000     0.664000000000     0.375000000000     0          
O        O      0.004950000000     0.633900000000     0.296650000000     0          
T        Si     0.090450000000     0.584300000000     0.276350000000     0          
T        Si     0.107000000000     0.705350000000     0.374700000000     0          
T        Si     0.102650000000     0.594650000000     0.428875000000     0          
T        Si     0.032050000000     0.649050000000     0.353200000000     0          
T        Si     0.000000000000     0.607550000000     0.250000000000     0          
O        O      0.458500000000     0.581250000000     0.483725000000     0          
O        O      0.382300000000     0.551950000000     0.434350000000     0          
O        O      0.406250000000     0.578600000000     0.275800000000     0          
O        O      0.391200000000     0.625350000000     0.450650000000     0          
O        O      0.437750000000     0.683250000000     0.397175000000     0          
O        O      0.401550000000     0.750000000000     0.386000000000     0          
O        O      0.365150000000     0.689950000000     0.402550000000     0          
O        O      0.439400000000     0.615150000000     0.361975000000     0          
O        O      0.495050000000     0.633900000000     0.453350000000     0          
T        Si     0.409550000000     0.584300000000     0.473650000000     0          
T        Si     0.393000000000     0.705350000000     0.375300000000     0          
T        Si     0.397350000000     0.594650000000     0.321125000000     0          
T        Si     0.467950000000     0.649050000000     0.396800000000     0          
O        O      0.458500000000     0.918750000000     0.483725000000     0          
O        O      0.382300000000     0.948050000000     0.434350000000     0          
O        O      0.406250000000     0.921400000000     0.275800000000     0          
O        O      0.391200000000     0.874650000000     0.450650000000     0          
O        O      0.437750000000     0.816750000000     0.397175000000     0          
O        O      0.365150000000     0.810050000000     0.402550000000     0          
O        O      0.439400000000     0.884850000000     0.361975000000     0          
O        O      0.000000000000     0.836000000000     0.375000000000     0          
O        O      0.495050000000     0.866100000000     0.453350000000     0          
T        Si     0.409550000000     0.915700000000     0.473650000000     0          
T        Si     0.393000000000     0.794650000000     0.375300000000     0          
T        Si     0.397350000000     0.905350000000     0.321125000000     0          
T        Si     0.467950000000     0.850950000000     0.396800000000     0          
T        Si     0.000000000000     0.892450000000     0.250000000000     0          
O        O      0.041500000000     0.918750000000     0.266275000000     0          
O        O      0.117700000000     0.948050000000     0.315650000000     0          
O        O      0.093750000000     0.921400000000     0.474200000000     0          
O        O      0.108800000000     0.874650000000     0.299350000000     0          
O        O      0.062250000000     0.816750000000     0.352825000000     0          
O        O      0.134850000000     0.810050000000     0.347450000000     0          
O        O      0.060600000000     0.884850000000     0.388025000000     0          
O        O      0.004950000000     0.866100000000     0.296650000000     0          
T        Si     0.090450000000     0.915700000000     0.276350000000     0          
T        Si     0.107000000000     0.794650000000     0.374700000000     0          
T        Si     0.102650000000     0.905350000000     0.428875000000     0          
T        Si     0.032050000000     0.850950000000     0.353200000000     0          
O        O      0.291500000000     0.831250000000     0.266275000000     0          
O        O      0.367700000000     0.801950000000     0.315650000000     0          
O        O      0.343750000000     0.828600000000     0.474200000000     0          
O        O      0.358800000000     0.875350000000     0.299350000000     0          
O        O      0.312250000000     0.933250000000     0.352825000000     0          
O        O      0.348450000000     0.500000000000     0.364000000000     0          
O        O      0.384850000000     0.939950000000     0.347450000000     0          
O        O      0.310600000000     0.865150000000     0.388025000000     0          
O        O      0.250000000000     0.914000000000     0.375000000000     0          
O        O      0.254950000000     0.883900000000     0.296650000000     0          
T        Si     0.340450000000     0.834300000000     0.276350000000     0          
T        Si     0.357000000000     0.955350000000     0.374700000000     0          
T        Si     0.352650000000     0.844650000000     0.428875000000     0          
T        Si     0.282050000000     0.899050000000     0.353200000000     0          
T        Si     0.250000000000     0.857550000000     0.250000000000     0          
O        O      0.208500000000     0.831250000000     0.483725000000     0          
O        O      0.132300000000     0.801950000000     0.434350000000     0          
O        O      0.156250000000     0.828600000000     0.275800000000     0          
O        O      0.141200000000     0.875350000000     0.450650000000     0          
O        O      0.187750000000     0.933250000000     0.397175000000     0          
O        O      0.151550000000     0.500000000000     0.386000000000     0          
O        O      0.115150000000     0.939950000000     0.402550000000     0          
O        O      0.189400000000     0.865150000000     0.361975000000     0          
O        O      0.245050000000     0.883900000000     0.453350000000     0          
T        Si     0.159550000000     0.834300000000     0.473650000000     0          
T        Si     0.143000000000     0.955350000000     0.375300000000     0          
T        Si     0.147350000000     0.844650000000     0.321125000000     0          
T        Si     0.217950000000     0.899050000000     0.396800000000     0          
O        O      0.208500000000     0.668750000000     0.483725000000     0          
O        O      0.132300000000     0.698050000000     0.434350000000     0          
O        O      0.156250000000     0.671400000000     0.275800000000     0          
O        O      0.141200000000     0.624650000000     0.450650000000     0          
O        O      0.187750000000     0.566750000000     0.397175000000     0          
O        O      0.115150000000     0.560050000000     0.402550000000     0          
O        O      0.189400000000     0.634850000000     0.361975000000     0          
O        O      0.250000000000     0.586000000000     0.375000000000     0          
O        O      0.245050000000     0.616100000000     0.453350000000     0          
T        Si     0.159550000000     0.665700000000     0.473650000000     0          
T        Si     0.143000000000     0.544650000000     0.375300000000     0          
T        Si     0.147350000000     0.655350000000     0.321125000000     0          
T        Si     0.217950000000     0.600950000000     0.396800000000     0          
T        Si     0.250000000000     0.642450000000     0.250000000000     0          
O        O      0.291500000000     0.668750000000     0.266275000000     0          
O        O      0.367700000000     0.698050000000     0.315650000000     0          
O        O      0.343750000000     0.671400000000     0.474200000000     0          
O        O      0.358800000000     0.624650000000     0.299350000000     0          
O        O      0.312250000000     0.566750000000     0.352825000000     0          
O        O      0.384850000000     0.560050000000     0.347450000000     0          
O        O      0.310600000000     0.634850000000     0.388025000000     0          
O        O      0.254950000000     0.616100000000     0.296650000000     0          
T        Si     0.340450000000     0.665700000000     0.276350000000     0          
T        Si     0.357000000000     0.544650000000     0.374700000000     0          
T        Si     0.352650000000     0.655350000000     0.428875000000     0          
T        Si     0.282050000000     0.600950000000     0.353200000000     0          
O        O      0.041500000000     0.581250000000     0.516275000000     0          
O        O      0.117700000000     0.551950000000     0.565650000000     0          
O        O      0.093750000000     0.578600000000     0.724200000000     0          
O        O      0.108800000000     0.625350000000     0.549350000000     0          
O        O      0.062250000000     0.683250000000     0.602825000000     0          
O        O      0.098450000000     0.750000000000     0.614000000000     0          
O        O      0.134850000000     0.689950000000     0.597450000000     0          
O        O      0.060600000000     0.615150000000     0.638025000000     0          
O        O      0.000000000000     0.664000000000     0.625000000000     0          
O        O      0.004950000000     0.633900000000     0.546650000000     0          
T        Si     0.090450000000     0.584300000000     0.526350000000     0          
T        Si     0.107000000000     0.705350000000     0.624700000000     0          
T        Si     0.102650000000     0.594650000000     0.678875000000     0          
T        Si     0.032050000000     0.649050000000     0.603200000000     0          
T        Si     0.000000000000     0.607550000000     0.500000000000     0          
O        O      0.458500000000     0.581250000000     0.733725000000     0          
O        O      0.382300000000     0.551950000000     0.684350000000     0          
O        O      0.406250000000     0.578600000000     0.525800000000     0          
O        O      0.391200000000     0.625350000000     0.700650000000     0          
O        O      0.437750000000     0.683250000000     0.647175000000     0          
O        O      0.401550000000     0.750000000000     0.636000000000     0          
O        O      0.365150000000     0.689950000000     0.652550000000     0          
O        O      0.439400000000     0.615150000000     0.611975000000     0          
O        O      0.495050000000     0.633900000000     0.703350000000     0          
T        Si     0.409550000000     0.584300000000     0.723650000000     0          
T        Si     0.393000000000     0.705350000000     0.625300000000     0          
T        Si     0.397350000000     0.594650000000     0.571125000000     0          
T        Si     0.467950000000     0.649050000000     0.646800000000     0          
O        O      0.458500000000     0.918750000000     0.733725000000     0          
O        O      0.382300000000     0.948050000000     0.684350000000     0          
O        O      0.406250000000     0.921400000000     0.525800000000     0          
O        O      0.391200000000     0.874650000000     0.700650000000     0          
O        O      0.437750000000     0.816750000000     0.647175000000     0          
O        O      0.365150000000     0.810050000000     0.652550000000     0          
O        O      0.439400000000     0.884850000000     0.611975000000     0          
O        O      0.000000000000     0.836000000000     0.625000000000     0          
O        O      0.495050000000     0.866100000000     0.703350000000     0          
T        Si     0.409550000000     0.915700000000     0.723650000000     0          
T        Si     0.393000000000     0.794650000000     0.625300000000     0          
T        Si     0.397350000000     0.905350000000     0.571125000000     0          
T        Si     0.467950000000     0.850950000000     0.646800000000     0          
T        Si     0.000000000000     0.892450000000     0.500000000000     0          
O        O      0.041500000000     0.918750000000     0.516275000000     0          
O        O      0.117700000000     0.948050000000     0.565650000000     0          
O        O      0.093750000000     0.921400000000     0.724200000000     0          
O        O      0.108800000000     0.874650000000     0.549350000000     0          
O        O      0.062250000000     0.816750000000     0.602825000000     0          
O        O      0.134850000000     0.810050000000     0.597450000000     0          
O        O      0.060600000000     0.884850000000     0.638025000000     0          
O        O      0.004950000000     0.866100000000     0.546650000000     0          
T        Si     0.090450000000     0.915700000000     0.526350000000     0          
T        Si     0.107000000000     0.794650000000     0.624700000000     0          
T        Si     0.102650000000     0.905350000000     0.678875000000     0          
T        Si     0.032050000000     0.850950000000     0.603200000000     0          
O        O      0.291500000000     0.831250000000     0.516275000000     0          
O        O      0.367700000000     0.801950000000     0.565650000000     0          
O        O      0.343750000000     0.828600000000     0.724200000000     0          
O        O      0.358800000000     0.875350000000     0.549350000000     0          
O        O      0.312250000000     0.933250000000     0.602825000000     0          
O        O      0.348450000000     0.500000000000     0.614000000000     0          
O        O      0.384850000000     0.939950000000     0.597450000000     0          
O        O      0.310600000000     0.865150000000     0.638025000000     0          
O        O      0.250000000000     0.914000000000     0.625000000000     0          
O        O      0.254950000000     0.883900000000     0.546650000000     0          
T        Si     0.340450000000     0.834300000000     0.526350000000     0          
T        Si     0.357000000000     0.955350000000     0.624700000000     0          
T        Si     0.352650000000     0.844650000000     0.678875000000     0          
T        Si     0.282050000000     0.899050000000     0.603200000000     0          
T        Si     0.250000000000     0.857550000000     0.500000000000     0          
O        O      0.208500000000     0.831250000000     0.733725000000     0          
O        O      0.132300000000     0.801950000000     0.684350000000     0          
O        O      0.156250000000     0.828600000000     0.525800000000     0          
O        O      0.141200000000     0.875350000000     0.700650000000     0          
O        O      0.187750000000     0.933250000000     0.647175000000     0          
O        O      0.151550000000     0.500000000000     0.636000000000     0          
O        O      0.115150000000     0.939950000000     0.652550000000     0          
O        O      0.189400000000     0.865150000000     0.611975000000     0          
O        O      0.245050000000     0.883900000000     0.703350000000     0          
T        Si     0.159550000000     0.834300000000     0.723650000000     0          
T        Si     0.143000000000     0.955350000000     0.625300000000     0          
T        Si     0.147350000000     0.844650000000     0.571125000000     0          
T        Si     0.217950000000     0.899050000000     0.646800000000     0          
O        O      0.208500000000     0.668750000000     0.733725000000     0          
O        O      0.132300000000     0.698050000000     0.684350000000     0          
O        O      0.156250000000     0.671400000000     0.525800000000     0          
O        O      0.141200000000     0.624650000000     0.700650000000     0          
O        O      0.187750000000     0.566750000000     0.647175000000     0          
O        O      0.115150000000     0.560050000000     0.652550000000     0          
O        O      0.189400000000     0.634850000000     0.611975000000     0          
O        O      0.250000000000     0.586000000000     0.625000000000     0          
O        O      0.245050000000     0.616100000000     0.703350000000     0          
T        Si     0.159550000000     0.665700000000     0.723650000000     0          
T        Si     0.143000000000     0.544650000000     0.625300000000     0          
T        Si     0.147350000000     0.655350000000     0.571125000000     0          
T        Si     0.217950000000     0.600950000000     0.646800000000     0          
T        Si     0.250000000000     0.642450000000     0.500000000000     0          
O        O      0.291500000000     0.668750000000     0.516275000000     0          
O        O      0.367700000000     0.698050000000     0.565650000000     0          
O        O      0.343750000000     0.671400000000     0.724200000000     0          
O        O      0.358800000000     0.624650000000     0.549350000000     0          
O        O      0.312250000000     0.566750000000     0.602825000000     0          
O        O      0.384850000000     0.560050000000     0.597450000000     0          
O        O      0.310600000000     0.634850000000     0.638025000000     0          
O        O      0.254950000000     0.616100000000     0.546650000000     0          
T        Si     0.340450000000     0.665700000000     0.526350000000     0          
T        Si     0.357000000000     0.544650000000     0.624700000000     0          
T        Si     0.352650000000     0.655350000000     0.678875000000     0          
T        Si     0.282050000000     0.600950000000     0.603200000000     0          
O        O      0.041500000000     0.581250000000     0.766275000000     0          
O        O      0.117700000000     0.551950000000     0.815650000000     0          
O        O      0.093750000000     0.578600000000     0.974200000000     0          
O        O      0.108800000000     0.625350000000     0.799350000000     0          
O        O      0.062250000000     0.683250000000     0.852825000000     0          
O        O      0.098450000000     0.750000000000     0.864000000000     0          
O        O      0.134850000000     0.689950000000     0.847450000000     0          
O        O      0.060600000000     0.615150000000     0.888025000000     0          
O        O      0.000000000000     0.664000000000     0.875000000000     0          
O        O      0.004950000000     0.633900000000     0.796650000000     0          
T        Si     0.090450000000     0.584300000000     0.776350000000     0          
T        Si     0.107000000000     0.705350000000     0.874700000000     0          
T        Si     0.102650000000     0.594650000000     0.928875000000     0          
T        Si     0.032050000000     0.649050000000     0.853200000000     0          
T        Si     0.000000000000     0.607550000000     0.750000000000     0          
O        O      0.458500000000     0.581250000000     0.983725000000     0          
O        O      0.382300000000     0.551950000000     0.934350000000     0          
O        O      0.406250000000     0.578600000000     0.775800000000     0          
O        O      0.391200000000     0.625350000000     0.950650000000     0          
O        O      0.437750000000     0.683250000000     0.897175000000     0          
O        O      0.401550000000     0.750000000000     0.886000000000     0          
O        O      0.365150000000     0.689950000000     0.902550000000     0          
O        O      0.439400000000     0.615150000000     0.861975000000     0          
O        O      0.495050000000     0.633900000000     0.953350000000     0          
T        Si     0.409550000000     0.584300000000     0.973650000000     0          
T        Si     0.393000000000     0.705350000000     0.875300000000     0          
T        Si     0.397350000000     0.594650000000     0.821125000000     0          
T        Si     0.467950000000     0.649050000000     0.896800000000     0          
O        O      0.458500000000     0.918750000000     0.983725000000     0          
O        O      0.382300000000     0.948050000000     0.934350000000     0          
O        O      0.406250000000     0.921400000000     0.775800000000     0          
O        O      0.391200000000     0.874650000000     0.950650000000     0          
O        O      0.437750000000     0.816750000000     0.897175000000     0          
O        O      0.365150000000     0.810050000000     0.902550000000     0          
O        O      0.439400000000     0.884850000000     0.861975000000     0          
O        O      0.000000000000     0.836000000000     0.875000000000     0          
O        O      0.495050000000     0.866100000000     0.953350000000     0          
T        Si     0.409550000000     0.915700000000     0.973650000000     0          
T        Si     0.393000000000     0.794650000000     0.875300000000     0          
T        Si     0.397350000000     0.905350000000     0.821125000000     0          
T        Si     0.467950000000     0.850950000000     0.896800000000     0          
T        Si     0.000000000000     0.892450000000     0.750000000000     0          
O        O      0.041500000000     0.918750000000     0.766275000000     0          
O        O      0.117700000000     0.948050000000     0.815650000000     0          
O        O      0.093750000000     0.921400000000     0.974200000000     0          
O        O      0.108800000000     0.874650000000     0.799350000000     0          
O        O      0.062250000000     0.816750000000     0.852825000000     0          
O        O      0.134850000000     0.810050000000     0.847450000000     0          
O        O      0.060600000000     0.884850000000     0.888025000000     0          
O        O      0.004950000000     0.866100000000     0.796650000000     0          
T        Si     0.090450000000     0.915700000000     0.776350000000     0          
T        Si     0.107000000000     0.794650000000     0.874700000000     0          
T        Si     0.102650000000     0.905350000000     0.928875000000     0          
T        Si     0.032050000000     0.850950000000     0.853200000000     0          
O        O      0.291500000000     0.831250000000     0.766275000000     0          
O        O      0.367700000000     0.801950000000     0.815650000000     0          
O        O      0.343750000000     0.828600000000     0.974200000000     0          
O        O      0.358800000000     0.875350000000     0.799350000000     0          
O        O      0.312250000000     0.933250000000     0.852825000000     0          
O        O      0.348450000000     0.500000000000     0.864000000000     0          
O        O      0.384850000000     0.939950000000     0.847450000000     0          
O        O      0.310600000000     0.865150000000     0.888025000000     0          
O        O      0.250000000000     0.914000000000     0.875000000000     0          
O        O      0.254950000000     0.883900000000     0.796650000000     0          
T        Si     0.340450000000     0.834300000000     0.776350000000     0          
T        Si     0.357000000000     0.955350000000     0.874700000000     0          
T        Si     0.352650000000     0.844650000000     0.928875000000     0          
T        Si     0.282050000000     0.899050000000     0.853200000000     0          
T        Si     0.250000000000     0.857550000000     0.750000000000     0          
O        O      0.208500000000     0.831250000000     0.983725000000     0          
O        O      0.132300000000     0.801950000000     0.934350000000     0          
O        O      0.156250000000     0.828600000000     0.775800000000     0          
O        O      0.141200000000     0.875350000000     0.950650000000     0          
O        O      0.187750000000     0.933250000000     0.897175000000     0          
O        O      0.151550000000     0.500000000000     0.886000000000     0          
O        O      0.115150000000     0.939950000000     0.902550000000     0          
O        O      0.189400000000     0.865150000000     0.861975000000     0          
O        O      0.245050000000     0.883900000000     0.953350000000     0          
T        Si     0.159550000000     0.834300000000     0.973650000000     0          
T        Si     0.143000000000     0.955350000000     0.875300000000     0          
T        Si     0.147350000000     0.844650000000     0.821125000000     0          
T        Si     0.217950000000     0.899050000000     0.896800000000     0          
O        O      0.208500000000     0.668750000000     0.983725000000     0          
O        O      0.132300000000     0.698050000000     0.934350000000     0          
O        O      0.156250000000     0.671400000000     0.775800000000     0          
O        O      0.141200000000     0.624650000000     0.950650000000     0          
O        O      0.187750000000     0.566750000000     0.897175000000     0          
O        O      0.115150000000     0.560050000000     0.902550000000     0          
O        O      0.189400000000     0.634850000000     0.861975000000     0          
O        O      0.250000000000     0.586000000000     0.875000000000     0          
O        O      0.245050000000     0.616100000000     0.953350000000     0          
T        Si     0.159550000000     0.665700000000     0.973650000000     0          
T        Si     0.143000000000     0.544650000000     0.875300000000     0          
T        Si     0.147350000000     0.655350000000     0.821125000000     0          
T        Si     0.217950000000     0.600950000000     0.896800000000     0          
T        Si     0.250000000000     0.642450000000     0.750000000000     0          
O        O      0.291500000000     0.668750000000     0.766275000000     0          
O        O      0.367700000000     0.698050000000     0.815650000000     0          
O        O      0.343750000000     0.671400000000     0.974200000000     0          
O        O      0.358800000000     0.624650000000     0.799350000000     0          
O        O      0.312250000000     0.566750000000     0.852825000000     0          
O        O      0.384850000000     0.560050000000     0.847450000000     0          
O        O      0.310600000000     0.634850000000     0.888025000000     0          
O        O      0.254950000000     0.616100000000     0.796650000000     0          
T        Si     0.340450000000     0.665700000000     0.776350000000     0          
T        Si     0.357000000000     0.544650000000     0.874700000000     0          
T        Si     0.352650000000     0.655350000000     0.928875000000     0          
T        Si     0.282050000000     0.600950000000     0.853200000000     0          
O        O      0.541500000000     0.081250000000     0.016275000000     0          
O        O      0.617700000000     0.051950000000     0.065650000000     0          
O        O      0.593750000000     0.078600000000     0.224200000000     0          
O        O      0.608800000000     0.125350000000     0.049350000000     0          
O        O      0.562250000000     0.183250000000     0.102825000000     0          
O        O      0.598450000000     0.250000000000     0.114000000000     0          
O        O      0.634850000000     0.189950000000     0.097450000000     0          
O        O      0.560600000000     0.115150000000     0.138025000000     0          
O        O      0.500000000000     0.164000000000     0.125000000000     0          
O        O      0.504950000000     0.133900000000     0.046650000000     0          
T        Si     0.590450000000     0.084300000000     0.026350000000     0          
T        Si     0.607000000000     0.205350000000     0.124700000000     0          
T        Si     0.602650000000     0.094650000000     0.178875000000     0          
T        Si     0.532050000000     0.149050000000     0.103200000000     0          
T        Si     0.500000000000     0.107550000000     0.000000000000     0          
O        O      0.958500000000     0.081250000000     0.233725000000     0          
O        O      0.882300000000     0.051950000000     0.184350000000     0          
O        O      0.906250000000     0.078600000000     0.025800000000     0          
O        O      0.891200000000     0.125350000000     0.200650000000     0          
O        O      0.937750000000     0.183250000000     0.147175000000     0          
O        O      0.901550000000     0.250000000000     0.136000000000     0          
O        O      0.865150000000     0.189950000000     0.152550000000     0          
O        O      0.939400000000     0.115150000000     0.111975000000     0          
O        O      0.995050000000     0.133900000000     0.203350000000     0          
T        Si     0.909550000000     0.084300000000     0.223650000000     0          
T        Si     0.893000000000     0.205350000000     0.125300000000     0          
T        Si     0.897350000000     0.094650000000     0.071125000000     0          
T        Si     0.967950000000     0.149050000000     0.146800000000     0          
O        O      0.958500000000     0.418750000000     0.233725000000     0          
O        O      0.882300000000     0.448050000000     0.184350000000     0          
O        O      0.906250000000     0.421400000000     0.025800000000     0          
O        O      0.891200000000     0.374650000000     0.200650000000     0          
O        O      0.937750000000     0.316750000000     0.147175000000     0          
O        O      0.865150000000     0.310050000000     0.152550000000     0          
O        O      0.939400000000     0.384850000000     0.111975000000     0          
O        O      0.500000000000     0.336000000000     0.125000000000     0          
O        O      0.995050000000     0.366100000000     0.203350000000     0          
T        Si     0.909550000000     0.415700000000     0.223650000000     0          
T        Si     0.893000000000     0.294650000000     0.125300000000     0          
T        Si     0.897350000000     0.405350000000     0.071125000000     0          
T        Si     0.967950000000     0.350950000000     0.146800000000     0          
T        Si     0.500000000000     0.392450000000     0.000000000000     0          
O        O      0.541500000000     0.418750000000     0.016275000000     0          
O        O      0.617700000000     0.448050000000     0.065650000000     0          
O        O      0.593750000000     0.421400000000     0.224200000000     0          
O        O      0.608800000000     0.374650000000     0.049350000000     0          
O        O      0.562250000000     0.316750000000     0.102825000000     0          
O        O      0.634850000000     0.310050000000     0.097450000000     0          
O        O      0.560600000000     0.384850000000     0.138025000000     0          
O        O      0.504950000000     0.366100000000     0.046650000000     0          
T        Si     0.590450000000     0.415700000000     0.026350000000     0          
T        Si     0.607000000000     0.294650000000     0.124700000000     0          
T        Si     0.602650000000     0.405350000000     0.178875000000     0          
T        Si     0.532050000000     0.350950000000     0.103200000000     0          
O        O      0.791500000000     0.331250000000     0.016275000000     0          
O        O      0.867700000000     0.301950000000     0.065650000000     0          
O        O      0.843750000000     0.328600000000     0.224200000000     0          
O        O      0.858800000000     0.375350000000     0.049350000000     0          
O        O      0.812250000000     0.433250000000     0.102825000000     0          
O        O      0.848450000000     0.000000000000     0.114000000000     0          
O        O      0.884850000000     0.439950000000     0.097450000000     0          
O        O      0.810600000000     0.365150000000     0.138025000000     0          
O        O      0.750000000000     0.414000000000     0.125000000000     0          
O        O      0.754950000000     0.383900000000     0.046650000000     0          
T        Si     0.840450000000     0.334300000000     0.026350000000     0          
T        Si     0.857000000000     0.455350000000     0.124700000000     0          
T        Si     0.852650000000     0.344650000000     0.178875000000     0          
T        Si     0.782050000000     0.399050000000     0.103200000000     0          
T        Si     0.750000000000     0.357550000000     0.000000000000     0          
O        O      0.708500000000     0.331250000000     0.233725000000     0          
O        O      0.632300000000     0.301950000000     0.184350000000     0          
O        O      0.656250000000     0.328600000000     0.025800000000     0          
O        O      0.641200000000     0.375350000000     0.200650000000     0          
O        O      0.687750000000     0.433250000000     0.147175000000     0          
O        O      0.651550000000     0.000000000000     0.136000000000     0          
O        O      0.615150000000     0.439950000000     0.152550000000     0          
O        O      0.689400000000     0.365150000000     0.111975000000     0          
O        O      0.745050000000     0.383900000000     0.203350000000     0          
T        Si     0.659550000000     0.334300000000     0.223650000000     0          
T        Si     0.643000000000     0.455350000000     0.125300000000     0          
T        Si     0.647350000000     0.344650000000     0.071125000000     0          
T        Si     0.717950000000     0.399050000000     0.146800000000     0          
O        O      0.708500000000     0.168750000000     0.233725000000     0          
O        O      0.632300000000     0.198050000000     0.184350000000     0          
O        O      0.656250000000     0.171400000000     0.025800000000     0          
O        O      0.641200000000     0.124650000000     0.200650000000     0          
O        O      0.687750000000     0.066750000000     0.147175000000     0          
O        O      0.615150000000     0.060050000000     0.152550000000     0          
O        O      0.689400000000     0.134850000000     0.111975000000     0          
O        O      0.750000000000     0.086000000000     0.125000000000     0          
O        O      0.745050000000     0.116100000000     0.203350000000     0          
T        Si     0.659550000000     0.165700000000     0.223650000000     0          
T        Si     0.643000000000     0.044650000000     0.125300000000     0          
T        Si     0.647350000000     0.155350000000     0.071125000000     0          
T        Si     0.717950000000     0.100950000000     0.146800000000     0          
T        Si     0.750000000000     0.142450000000     0.000000000000     0          
O        O      0.791500000000     0.168750000000     0.016275000000     0          
O        O      0.867700000000     0.198050000000     0.065650000000     0          
O        O      0.843750000000     0.171400000000     0.224200000000     0          
O        O      0.858800000000     0.124650000000     0.049350000000     0          
O        O      0.812250000000     0.066750000000     0.102825000000     0          
O        O      0.884850000000     0.060050000000     0.097450000000     0          
O        O      0.810600000000     0.134850000000     0.138025000000     0          
O        O      0.754950000000     0.116100000000     0.046650000000     0          
T        Si     0.840450000000     0.165700000000     0.026350000000     0          
T        Si     0.857000000000     0.044650000000     0.124700000000     0          
T        Si     0.852650000000     0.155350000000     0.178875000000     0          
T        Si     0.782050000000     0.100950000000     0.103200000000     0          
O        O      0.541500000000     0.081250000000     0.266275000000     0          
O        O      0.617700000000     0.051950000000     0.315650000000     0          
O        O      0.593750000000     0.078600000000     0.474200000000     0          
O        O      0.608800000000     0.125350000000     0.299350000000     0          
O        O      0.562250000000     0.183250000000     0.352825000000     0          
O        O      0.598450000000     0.250000000000     0.364000000000     0          
O        O      0.634850000000     0.189950000000     0.347450000000     0          
O        O      0.560600000000     0.115150000000     0.388025000000     0          
O        O      0.500000000000     0.164000000000     0.375000000000     0          
O        O      0.504950000000     0.133900000000     0.296650000000     0          
T        Si     0.590450000000     0.084300000000     0.276350000000     0          
T        Si     0.607000000000     0.205350000000     0.374700000000     0          
T        Si     0.602650000000     0.094650000000     0.428875000000     0          
T        Si     0.532050000000     0.149050000000     0.353200000000     0          
T        Si     0.500000000000     0.107550000000     0.250000000000     0          
O        O      0.958500000000     0.081250000000     0.483725000000     0          
O        O      0.882300000000     0.051950000000     0.434350000000     0          
O        O      0.906250000000     0.078600000000     0.275800000000     0          
O        O      0.891200000000     0.125350000000     0.450650000000     0          
O        O      0.937750000000     0.183250000000     0.397175000000     0          
O        O      0.901550000000     0.250000000000     0.386000000000     0          
O        O      0.865150000000     0.189950000000     0.402550000000     0          
O        O      0.939400000000     0.115150000000     0.361975000000     0          
O        O      0.995050000000     0.133900000000     0.453350000000     0          
T        Si     0.909550000000     0.084300000000     0.473650000000     0          
T        Si     0.893000000000     0.205350000000     0.375300000000     0          
T        Si     0.897350000000     0.094650000000     0.321125000000     0          
T        Si     0.967950000000     0.149050000000     0.396800000000     0          
O        O      0.958500000000     0.418750000000     0.483725000000     0          
O        O      0.882300000000     0.448050000000     0.434350000000     0          
O        O      0.906250000000     0.421400000000     0.275800000000     0          
O        O      0.891200000000     0.374650000000     0.450650000000     0          
O        O      0.937750000000     0.316750000000     0.397175000000     0          
O        O      0.865150000000     0.310050000000     0.402550000000     0          
O        O      0.939400000000     0.384850000000     0.361975000000     0          
O        O      0.500000000000     0.336000000000     0.375000000000     0          
O        O      0.995050000000     0.366100000000     0.453350000000     0          
T        Si     0.909550000000     0.415700000000     0.473650000000     0          
T        Si     0.893000000000     0.294650000000     0.375300000000     0          
T        Si     0.897350000000     0.405350000000     0.321125000000     0          
T        Si     0.967950000000     0.350950000000     0.396800000000     0          
T        Si     0.500000000000     0.392450000000     0.250000000000     0          
O        O      0.541500000000     0.418750000000     0.266275000000     0          
O        O      0.617700000000     0.448050000000     0.315650000000     0          
O        O      0.593750000000     0.421400000000     0.474200000000     0          
O        O      0.608800000000     0.374650000000     0.299350000000     0          
O        O      0.562250000000     0.316750000000     0.352825000000     0          
O        O      0.634850000000     0.310050000000     0.347450000000     0          
O        O      0.560600000000     0.384850000000     0.388025000000     0          
O        O      0.504950000000     0.366100000000     0.296650000000     0          
T        Si     0.590450000000     0.415700000000     0.276350000000     0          
T        Si     0.607000000000     0.294650000000     0.374700000000     0          
T        Si     0.602650000000     0.405350000000     0.428875000000     0          
T        Si     0.532050000000     0.350950000000     0.353200000000     0          
O        O      0.791500000000     0.331250000000     0.266275000000     0          
O        O      0.867700000000     0.301950000000     0.315650000000     0          
O        O      0.843750000000     0.328600000000     0.474200000000     0          
O        O      0.858800000000     0.375350000000     0.299350000000     0          
O        O      0.812250000000     0.433250000000     0.352825000000     0          
O        O      0.848450000000     0.000000000000     0.364000000000     0          
O        O      0.884850000000     0.439950000000     0.347450000000     0          
O        O      0.810600000000     0.365150000000     0.388025000000     0          
O        O      0.750000000000     0.414000000000     0.375000000000     0          
O        O      0.754950000000     0.383900000000     0.296650000000     0          
T        Si     0.840450000000     0.334300000000     0.276350000000     0          
T        Si     0.857000000000     0.455350000000     0.374700000000     0          
T        Si     0.852650000000     0.344650000000     0.428875000000     0          
T        Si     0.782050000000     0.399050000000     0.353200000000     0          
T        Si     0.750000000000     0.357550000000     0.250000000000     0          
O        O      0.708500000000     0.331250000000     0.483725000000     0          
O        O      0.632300000000     0.301950000000     0.434350000000     0          
O        O      0.656250000000     0.328600000000     0.275800000000     0          
O        O      0.641200000000     0.375350000000     0.450650000000     0          
O        O      0.687750000000     0.433250000000     0.397175000000     0          
O        O      0.651550000000     0.000000000000     0.386000000000     0          
O        O      0.615150000000     0.439950000000     0.402550000000     0          
O        O      0.689400000000     0.365150000000     0.361975000000     0          
O        O      0.745050000000     0.383900000000     0.453350000000     0          
T        Si     0.659550000000     0.334300000000     0.473650000000     0          
T        Si     0.643000000000     0.455350000000     0.375300000000     0          
T        Si     0.647350000000     0.344650000000     0.321125000000     0          
T        Si     0.717950000000     0.399050000000     0.396800000000     0          
O        O      0.708500000000     0.168750000000     0.483725000000     0          
O        O      0.632300000000     0.198050000000     0.434350000000     0          
O        O      0.656250000000     0.171400000000     0.275800000000     0          
O        O      0.641200000000     0.124650000000     0.450650000000     0          
O        O      0.687750000000     0.066750000000     0.397175000000     0          
O        O      0.615150000000     0.060050000000     0.402550000000     0          
O        O      0.689400000000     0.134850000000     0.361975000000     0          
O        O      0.750000000000     0.086000000000     0.375000000000     0          
O        O      0.745050000000     0.116100000000     0.453350000000     0          
T        Si     0.659550000000     0.165700000000     0.473650000000     0          
T        Si     0.643000000000     0.044650000000     0.375300000000     0          
T        Si     0.647350000000     0.155350000000     0.321125000000     0          
T        Si     0.717950000000     0.100950000000     0.396800000000     0          
T        Si     0.750000000000     0.142450000000     0.250000000000     0          
O        O      0.791500000000     0.168750000000     0.266275000000     0          
O        O      0.867700000000     0.198050000000     0.315650000000     0          
O        O      0.843750000000     0.171400000000     0.474200000000     0          
O        O      0.858800000000     0.124650000000     0.299350000000     0          
O        O      0.812250000000     0.066750000000     0.352825000000     0          
O        O      0.884850000000     0.060050000000     0.347450000000     0          
O        O      0.810600000000     0.134850000000     0.388025000000     0          
O        O      0.754950000000     0.116100000000     0.296650000000     0          
T        Si     0.840450000000     0.165700000000     0.276350000000     0          
T        Si     0.857000000000     0.044650000000     0.374700000000     0          
T        Si     0.852650000000     0.155350000000     0.428875000000     0          
T        Si     0.782050000000     0.100950000000     0.353200000000     0          
O        O      0.541500000000     0.081250000000     0.516275000000     0          
O        O      0.617700000000     0.051950000000     0.565650000000     0          
O        O      0.593750000000     0.078600000000     0.724200000000     0          
O        O      0.608800000000     0.125350000000     0.549350000000     0          
O        O      0.562250000000     0.183250000000     0.602825000000     0          
O        O      0.598450000000     0.250000000000     0.614000000000     0          
O        O      0.634850000000     0.189950000000     0.597450000000     0          
O        O      0.560600000000     0.115150000000     0.638025000000     0          
O        O      0.500000000000     0.164000000000     0.625000000000     0          
O        O      0.504950000000     0.133900000000     0.546650000000     0          
T        Si     0.590450000000     0.084300000000     0.526350000000     0          
T        Si     0.607000000000     0.205350000000     0.624700000000     0          
T        Si     0.602650000000     0.094650000000     0.678875000000     0          
T        Si     0.532050000000     0.149050000000     0.603200000000     0          
T        Si     0.500000000000     0.107550000000     0.500000000000     0          
O        O      0.958500000000     0.081250000000     0.733725000000     0          
O        O      0.882300000000     0.051950000000     0.684350000000     0          
O        O      0.906250000000     0.078600000000     0.525800000000     0          
O        O      0.891200000000     0.125350000000     0.700650000000     0          
O        O      0.937750000000     0.183250000000     0.647175000000     0          
O        O      0.901550000000     0.250000000000     0.636000000000     0          
O        O      0.865150000000     0.189950000000     0.652550000000     0          
O        O      0.939400000000     0.115150000000     0.611975000000     0          
O        O      0.995050000000     0.133900000000     0.703350000000     0          
T        Si     0.909550000000     0.084300000000     0.723650000000     0          
T        Si     0.893000000000     0.205350000000     0.625300000000     0          
T        Si     0.897350000000     0.094650000000     0.571125000000     0          
T        Si     0.967950000000     0.149050000000     0.646800000000     0          
O        O      0.958500000000     0.418750000000     0.733725000000     0          
O        O      0.882300000000     0.448050000000     0.684350000000     0          
O        O      0.906250000000     0.421400000000     0.525800000000     0          
O        O      0.891200000000     0.374650000000     0.700650000000     0          
O        O      0.937750000000     0.316750000000     0.647175000000     0          
O        O      0.865150000000     0.310050000000     0.652550000000     0          
O        O      0.939400000000     0.384850000000     0.611975000000     0          
O        O      0.500000000000     0.336000000000     0.625000000000     0          
O        O      0.995050000000     0.366100000000     0.703350000000     0          
T        Si     0.909550000000     0.415700000000     0.723650000000     0          
T        Si     0.893000000000     0.294650000000     0.625300000000     0          
T        Si     0.897350000000     0.405350000000     0.571125000000     0          
T        Si     0.967950000000     0.350950000000     0.646800000000     0          
T        Si     0.500000000000     0.392450000000     0.500000000000     0          
O        O      0.541500000000     0.418750000000     0.516275000000     0          
O        O      0.617700000000     0.448050000000     0.565650000000     0          
O        O      0.593750000000     0.421400000000     0.724200000000     0          
O        O      0.608800000000     0.374650000000     0.549350000000     0          
O        O      0.562250000000     0.316750000000     0.602825000000     0          
O        O      0.634850000000     0.310050000000     0.597450000000     0          
O        O      0.560600000000     0.384850000000     0.638025000000     0          
O        O      0.504950000000     0.366100000000     0.546650000000     0          
T        Si     0.590450000000     0.415700000000     0.526350000000     0          
T        Si     0.607000000000     0.294650000000     0.624700000000     0          
T        Si     0.602650000000     0.405350000000     0.678875000000     0          
T        Si     0.532050000000     0.350950000000     0.603200000000     0          
O        O      0.791500000000     0.331250000000     0.516275000000     0          
O        O      0.867700000000     0.301950000000     0.565650000000     0          
O        O      0.843750000000     0.328600000000     0.724200000000     0          
O        O      0.858800000000     0.375350000000     0.549350000000     0          
O        O      0.812250000000     0.433250000000     0.602825000000     0          
O        O      0.848450000000     0.000000000000     0.614000000000     0          
O        O      0.884850000000     0.439950000000     0.597450000000     0          
O        O      0.810600000000     0.365150000000     0.638025000000     0          
O        O      0.750000000000     0.414000000000     0.625000000000     0          
O        O      0.754950000000     0.383900000000     0.546650000000     0          
T        Si     0.840450000000     0.334300000000     0.526350000000     0          
T        Si     0.857000000000     0.455350000000     0.624700000000     0          
T        Si     0.852650000000     0.344650000000     0.678875000000     0          
T        Si     0.782050000000     0.399050000000     0.603200000000     0          
T        Si     0.750000000000     0.357550000000     0.500000000000     0          
O        O      0.708500000000     0.331250000000     0.733725000000     0          
O        O      0.632300000000     0.301950000000     0.684350000000     0          
O        O      0.656250000000     0.328600000000     0.525800000000     0          
O        O      0.641200000000     0.375350000000     0.700650000000     0          
O        O      0.687750000000     0.433250000000     0.647175000000     0          
O        O      0.651550000000     0.000000000000     0.636000000000     0          
O        O      0.615150000000     0.439950000000     0.652550000000     0          
O        O      0.689400000000     0.365150000000     0.611975000000     0          
O        O      0.745050000000     0.383900000000     0.703350000000     0          
T        Si     0.659550000000     0.334300000000     0.723650000000     0          
T        Si     0.643000000000     0.455350000000     0.625300000000     0          
T        Si     0.647350000000     0.344650000000     0.571125000000     0          
T        Si     0.717950000000     0.399050000000     0.646800000000     0          
O        O      0.708500000000     0.168750000000     0.733725000000     0          
O        O      0.632300000000     0.198050000000     0.684350000000     0          
O        O      0.656250000000     0.171400000000     0.525800000000     0          
O        O      0.641200000000     0.124650000000     0.700650000000     0          
O        O      0.687750000000     0.066750000000     0.647175000000     0          
O        O      0.615150000000     0.060050000000     0.652550000000     0          
O        O      0.689400000000     0.134850000000     0.611975000000     0          
O        O      0.750000000000     0.086000000000     0.625000000000     0          
O        O      0.745050000000     0.116100000000     0.703350000000     0          
T        Si     0.659550000000     0.165700000000     0.723650000000     0          
T        Si     0.643000000000     0.044650000000     0.625300000000     0          
T        Si     0.647350000000     0.155350000000     0.571125000000     0          
T        Si     0.717950000000     0.100950000000     0.646800000000     0          
T        Si     0.750000000000     0.142450000000     0.500000000000     0          
O        O      0.791500000000     0.168750000000     0.516275000000     0          
O        O      0.867700000000     0.198050000000     0.565650000000     0          
O        O      0.843750000000     0.171400000000     0.724200000000     0          
O        O      0.858800000000     0.124650000000     0.549350000000     0          
O        O      0.812250000000     0.066750000000     0.602825000000     0          
O        O      0.884850000000     0.060050000000     0.597450000000     0          
O        O      0.810600000000     0.134850000000     0.638025000000     0          
O        O      0.754950000000     0.116100000000     0.546650000000     0          
T        Si     0.840450000000     0.165700000000     0.526350000000     0          
T        Si     0.857000000000     0.044650000000     0.624700000000     0          
T        Si     0.852650000000     0.155350000000     0.678875000000     0          
T        Si     0.782050000000     0.100950000000     0.603200000000     0          
O        O      0.541500000000     0.081250000000     0.766275000000     0          
O        O      0.617700000000     0.051950000000     0.815650000000     0          
O        O      0.593750000000     0.078600000000     0.974200000000     0          
O        O      0.608800000000     0.125350000000     0.799350000000     0          
O        O      0.562250000000     0.183250000000     0.852825000000     0          
O        O      0.598450000000     0.250000000000     0.864000000000     0          
O        O      0.634850000000     0.189950000000     0.847450000000     0          
O        O      0.560600000000     0.115150000000     0.888025000000     0          
O        O      0.500000000000     0.164000000000     0.875000000000     0          
O        O      0.504950000000     0.133900000000     0.796650000000     0          
T        Si     0.590450000000     0.084300000000     0.776350000000     0          
T        Si     0.607000000000     0.205350000000     0.874700000000     0          
T        Si     0.602650000000     0.094650000000     0.928875000000     0          
T        Si     0.532050000000     0.149050000000     0.853200000000     0          
T        Si     0.500000000000     0.107550000000     0.750000000000     0          
O        O      0.958500000000     0.081250000000     0.983725000000     0          
O        O      0.882300000000     0.051950000000     0.934350000000     0          
O        O      0.906250000000     0.078600000000     0.775800000000     0          
O        O      0.891200000000     0.125350000000     0.950650000000     0          
O        O      0.937750000000     0.183250000000     0.897175000000     0          
O        O      0.901550000000     0.250000000000     0.886000000000     0          
O        O      0.865150000000     0.189950000000     0.902550000000     0          
O        O      0.939400000000     0.115150000000     0.861975000000     0          
O        O      0.995050000000     0.133900000000     0.953350000000     0          
T        Si     0.909550000000     0.084300000000     0.973650000000     0          
T        Si     0.893000000000     0.205350000000     0.875300000000     0          
T        Si     0.897350000000     0.094650000000     0.821125000000     0          
T        Si     0.967950000000     0.149050000000     0.896800000000     0          
O        O      0.958500000000     0.418750000000     0.983725000000     0          
O        O      0.882300000000     0.448050000000     0.934350000000     0          
O        O      0.906250000000     0.421400000000     0.775800000000     0          
O        O      0.891200000000     0.374650000000     0.950650000000     0          
O        O      0.937750000000     0.316750000000     0.897175000000     0          
O        O      0.865150000000     0.310050000000     0.902550000000     0          
O        O      0.939400000000     0.384850000000     0.861975000000     0          
O        O      0.500000000000     0.336000000000     0.875000000000     0          
O        O      0.995050000000     0.366100000000     0.953350000000     0          
T        Si     0.909550000000     0.415700000000     0.973650000000     0          
T        Si     0.893000000000     0.294650000000     0.875300000000     0          
T        Si     0.897350000000     0.405350000000     0.821125000000     0          
T        Si     0.967950000000     0.350950000000     0.896800000000     0          
T        Si     0.500000000000     0.392450000000     0.750000000000     0          
O        O      0.541500000000     0.418750000000     0.766275000000     0          
O        O      0.617700000000     0.448050000000     0.815650000000     0          
O        O      0.593750000000     0.421400000000     0.974200000000     0          
O        O      0.608800000000     0.374650000000     0.799350000000     0          
O        O      0.562250000000     0.316750000000     0.852825000000     0          
O        O      0.634850000000     0.310050000000     0.847450000000     0          
O        O      0.560600000000     0.384850000000     0.888025000000     0          
O        O      0.504950000000     0.366100000000     0.796650000000     0          
T        Si     0.590450000000     0.415700000000     0.776350000000     0          
T        Si     0.607000000000     0.294650000000     0.874700000000     0          
T        Si     0.602650000000     0.405350000000     0.928875000000     0          
T        Si     0.532050000000     0.350950000000     0.853200000000     0          
O        O      0.791500000000     0.331250000000     0.766275000000     0          
O        O      0.867700000000     0.301950000000     0.815650000000     0          
O        O      0.843750000000     0.328600000000     0.974200000000     0          
O        O      0.858800000000     0.375350000000     0.799350000000     0          
O        O      0.812250000000     0.433250000000     0.852825000000     0          
O        O      0.848450000000     0.000000000000     0.864000000000     0          
O        O      0.884850000000     0.439950000000     0.847450000000     0          
O        O      0.810600000000     0.365150000000     0.888025000000     0          
O        O      0.750000000000     0.414000000000     0.875000000000     0          
O        O      0.754950000000     0.383900000000     0.796650000000     0          
T        Si     0.840450000000     0.334300000000     0.776350000000     0          
T        Si     0.857000000000     0.455350000000     0.874700000000     0          
T        Si     0.852650000000     0.344650000000     0.928875000000     0          
T        Si     0.782050000000     0.399050000000     0.853200000000     0          
T        Si     0.750000000000     0.357550000000     0.750000000000     0          
O        O      0.708500000000     0.331250000000     0.983725000000     0          
O        O      0.632300000000     0.301950000000     0.934350000000     0          
O        O      0.656250000000     0.328600000000     0.775800000000     0          
O        O      0.641200000000     0.375350000000     0.950650000000     0          
O        O      0.687750000000     0.433250000000     0.897175000000     0          
O        O      0.651550000000     0.000000000000     0.886000000000     0          
O        O      0.615150000000     0.439950000000     0.902550000000     0          
O        O      0.689400000000     0.365150000000     0.861975000000     0          
O        O      0.745050000000     0.383900000000     0.953350000000     0          
T        Si     0.659550000000     0.334300000000     0.973650000000     0          
T        Si     0.643000000000     0.455350000000     0.875300000000     0          
T        Si     0.647350000000     0.344650000000     0.821125000000     0          
T        Si     0.717950000000     0.399050000000     0.896800000000     0          
O        O      0.708500000000     0.168750000000     0.983725000000     0          
O        O      0.632300000000     0.198050000000     0.934350000000     0          
O        O      0.656250000000     0.171400000000     0.775800000000     0          
O        O      0.641200000000     0.124650000000     0.950650000000     0          
O        O      0.687750000000     0.066750000000     0.897175000000     0          
O        O      0.615150000000     0.060050000000     0.902550000000     0          
O        O      0.689400000000     0.134850000000     0.861975000000     0          
O        O      0.750000000000     0.086000000000     0.875000000000     0          
O        O      0.745050000000     0.116100000000     0.953350000000     0          
T        Si     0.659550000000     0.165700000000     0.973650000000     0          
T        Si     0.643000000000     0.044650000000     0.875300000000     0          
T        Si     0.647350000000     0.155350000000     0.821125000000     0          
T        Si     0.717950000000     0.100950000000     0.896800000000     0          
T        Si     0.750000000000     0.142450000000     0.750000000000     0          
O        O      0.791500000000     0.168750000000     0.766275000000     0          
O        O      0.867700000000     0.198050000000     0.815650000000     0          
O        O      0.843750000000     0.171400000000     0.974200000000     0          
O        O      0.858800000000     0.124650000000     0.799350000000     0          
O        O      0.812250000000     0.066750000000     0.852825000000     0          
O        O      0.884850000000     0.060050000000     0.847450000000     0          
O        O      0.810600000000     0.134850000000     0.888025000000     0          
O        O      0.754950000000     0.116100000000     0.796650000000     0          
T        Si     0.840450000000     0.165700000000     0.776350000000     0          
T        Si     0.857000000000     0.044650000000     0.874700000000     0          
T        Si     0.852650000000     0.155350000000     0.928875000000     0          
T        Si     0.782050000000     0.100950000000     0.853200000000     0          
O        O      0.541500000000     0.581250000000     0.016275000000     0          
O        O      0.617700000000     0.551950000000     0.065650000000     0          
O        O      0.593750000000     0.578600000000     0.224200000000     0          
O        O      0.608800000000     0.625350000000     0.049350000000     0          
O        O      0.562250000000     0.683250000000     0.102825000000     0          
O        O      0.598450000000     0.750000000000     0.114000000000     0          
O        O      0.634850000000     0.689950000000     0.097450000000     0          
O        O      0.560600000000     0.615150000000     0.138025000000     0          
O        O      0.500000000000     0.664000000000     0.125000000000     0          
O        O      0.504950000000     0.633900000000     0.046650000000     0          
T        Si     0.590450000000     0.584300000000     0.026350000000     0          
T        Si     0.607000000000     0.705350000000     0.124700000000     0          
T        Si     0.602650000000     0.594650000000     0.178875000000     0          
T        Si     0.532050000000     0.649050000000     0.103200000000     0          
T        Si     0.500000000000     0.607550000000     0.000000000000     0          
O        O      0.958500000000     0.581250000000     0.233725000000     0          
O        O      0.882300000000     0.551950000000     0.184350000000     0          
O        O      0.906250000000     0.578600000000     0.025800000000     0          
O        O      0.891200000000     0.625350000000     0.200650000000     0          
O        O      0.937750000000     0.683250000000     0.147175000000     0          
O        O      0.901550000000     0.750000000000     0.136000000000     0          
O        O      0.865150000000     0.689950000000     0.152550000000     0          
O        O      0.939400000000     0.615150000000     0.111975000000     0          
O        O      0.995050000000     0.633900000000     0.203350000000     0          
T        Si     0.909550000000     0.584300000000     0.223650000000     0          
T        Si     0.893000000000     0.705350000000     0.125300000000     0          
T        Si     0.897350000000     0.594650000000     0.071125000000     0          
T        Si     0.967950000000     0.649050000000     0.146800000000     0          
O        O      0.958500000000     0.918750000000     0.233725000000     0          
O        O      0.882300000000     0.948050000000     0.184350000000     0          
O        O      0.906250000000     0.921400000000     0.025800000000     0          
O        O      0.891200000000     0.874650000000     0.200650000000     0          
O        O      0.937750000000     0.816750000000     0.147175000000     0          
O        O      0.865150000000     0.810050000000     0.152550000000     0          
O        O      0.939400000000     0.884850000000     0.111975000000     0          
O        O      0.500000000000     0.836000000000     0.125000000000     0          
O        O      0.995050000000     0.866100000000     0.203350000000     0          
T        Si     0.909550000000     0.915700000000     0.223650000000     0          
T        Si     0.893000000000     0.794650000000     0.125300000000     0          
T        Si     0.897350000000     0.905350000000     0.071125000000     0          
T        Si     0.967950000000     0.850950000000     0.146800000000     0          
T        Si     0.500000000000     0.892450000000     0.000000000000     0          
O        O      0.541500000000     0.918750000000     0.016275000000     0          
O        O      0.617700000000     0.948050000000     0.065650000000     0          
O        O      0.593750000000     0.921400000000     0.224200000000     0          
O        O      0.608800000000     0.874650000000     0.049350000000     0          
O        O      0.562250000000     0.816750000000     0.102825000000     0          
O        O      0.634850000000     0.810050000000     0.097450000000     0          
O        O      0.560600000000     0.884850000000     0.138025000000     0          
O        O      0.504950000000     0.866100000000     0.046650000000     0          
T        Si     0.590450000000     0.915700000000     0.026350000000     0          
T        Si     0.607000000000     0.794650000000     0.124700000000     0          
T        Si     0.602650000000     0.905350000000     0.178875000000     0          
T        Si     0.532050000000     0.850950000000     0.103200000000     0          
O        O      0.791500000000     0.831250000000     0.016275000000     0          
O        O      0.867700000000     0.801950000000     0.065650000000     0          
O        O      0.843750000000     0.828600000000     0.224200000000     0          
O        O      0.858800000000     0.875350000000     0.049350000000     0          
O        O      0.812250000000     0.933250000000     0.102825000000     0          
O        O      0.848450000000     0.500000000000     0.114000000000     0          
O        O      0.884850000000     0.939950000000     0.097450000000     0          
O        O      0.810600000000     0.865150000000     0.138025000000     0          
O        O      0.750000000000     0.914000000000     0.125000000000     0          
O        O      0.754950000000     0.883900000000     0.046650000000     0          
T        Si     0.840450000000     0.834300000000     0.026350000000     0          
T        Si     0.857000000000     0.955350000000     0.124700000000     0          
T        Si     0.852650000000     0.844650000000     0.178875000000     0          
T        Si     0.782050000000     0.899050000000     0.103200000000     0          
T        Si     0.750000000000     0.857550000000     0.000000000000     0          
O        O      0.708500000000     0.831250000000     0.233725000000     0          
O        O      0.632300000000     0.801950000000     0.184350000000     0          
O        O      0.656250000000     0.828600000000     0.025800000000     0          
O        O      0.641200000000     0.875350000000     0.200650000000     0          
O        O      0.687750000000     0.933250000000     0.147175000000     0          
O        O      0.651550000000     0.500000000000     0.136000000000     0          
O        O      0.615150000000     0.939950000000     0.152550000000     0          
O        O      0.689400000000     0.865150000000     0.111975000000     0          
O        O      0.745050000000     0.883900000000     0.203350000000     0          
T        Si     0.659550000000     0.834300000000     0.223650000000     0          
T        Si     0.643000000000     0.955350000000     0.125300000000     0          
T        Si     0.647350000000     0.844650000000     0.071125000000     0          
T        Si     0.717950000000     0.899050000000     0.146800000000     0          
O        O      0.708500000000     0.668750000000     0.233725000000     0          
O        O      0.632300000000     0.698050000000     0.184350000000     0          
O        O      0.656250000000     0.671400000000     0.025800000000     0          
O        O      0.641200000000     0.624650000000     0.200650000000     0          
O        O      0.687750000000     0.566750000000     0.147175000000     0          
O        O      0.615150000000     0.560050000000     0.152550000000     0          
O        O      0.689400000000     0.634850000000     0.111975000000     0          
O        O      0.750000000000     0.586000000000     0.125000000000     0          
O        O      0.745050000000     0.616100000000     0.203350000000     0          
T        Si     0.659550000000     0.665700000000     0.223650000000     0          
T        Si     0.643000000000     0.544650000000     0.125300000000     0          
T        Si     0.647350000000     0.655350000000     0.071125000000     0          
T        Si     0.717950000000     0.600950000000     0.146800000000     0          
T        Si     0.750000000000     0.642450000000     0.000000000000     0          
O        O      0.791500000000     0.668750000000     0.016275000000     0          
O        O      0.867700000000     0.698050000000     0.065650000000     0          
O        O      0.843750000000     0.671400000000     0.224200000000     0          
O        O      0.858800000000     0.624650000000     0.049350000000     0          
O        O      0.812250000000     0.566750000000     0.102825000000     0          
O        O      0.884850000000     0.560050000000     0.097450000000     0          
O        O      0.810600000000     0.634850000000     0.138025000000     0          
O        O      0.754950000000     0.616100000000     0.046650000000     0          
T        Si     0.840450000000     0.665700000000     0.026350000000     0          
T        Si     0.857000000000     0.544650000000     0.124700000000     0          
T        Si     0.852650000000     0.655350000000     0.178875000000     0          
T        Si     0.782050000000     0.600950000000     0.103200000000     0          
O        O      0.541500000000     0.581250000000     0.266275000000     0          
O        O      0.617700000000     0.551950000000     0.315650000000     0          
O        O      0.593750000000     0.578600000000     0.474200000000     0          
O        O      0.608800000000     0.625350000000     0.299350000000     0          
O        O      0.562250000000     0.683250000000     0.352825000000     0          
O        O      0.598450000000     0.750000000000     0.364000000000     0          
O        O      0.634850000000     0.689950000000     0.347450000000     0          
O        O      0.560600000000     0.615150000000     0.388025000000     0          
O        O      0.500000000000     0.664000000000     0.375000000000     0          
O        O      0.504950000000     0.633900000000     0.296650000000     0          
T        Si     0.590450000000     0.584300000000     0.276350000000     0          
T        Si     0.607000000000     0.705350000000     0.374700000000     0          
T        Si     0.602650000000     0.594650000000     0.428875000000     0          
T        Si     0.532050000000     0.649050000000     0.353200000000     0          
T        Si     0.500000000000     0.607550000000     0.250000000000     0          
O        O      0.958500000000     0.581250000000     0.483725000000     0          
O        O      0.882300000000     0.551950000000     0.434350000000     0          
O        O      0.906250000000     0.578600000000     0.275800000000     0          
O        O      0.891200000000     0.625350000000     0.450650000000     0          
O        O      0.937750000000     0.683250000000     0.397175000000     0          
O        O      0.901550000000     0.750000000000     0.386000000000     0          
O        O      0.865150000000     0.689950000000     0.402550000000     0          
O        O      0.939400000000     0.615150000000     0.361975000000     0          
O        O      0.995050000000     0.633900000000     0.453350000000     0          
T        Si     0.909550000000     0.584300000000     0.473650000000     0          
T        Si     0.893000000000     0.705350000000     0.375300000000     0          
T        Si     0.897350000000     0.594650000000     0.321125000000     0          
T        Si     0.967950000000     0.649050000000     0.396800000000     0          
O        O      0.958500000000     0.918750000000     0.483725000000     0          
O        O      0.882300000000     0.948050000000     0.434350000000     0          
O        O      0.906250000000     0.921400000000     0.275800000000     0          
O        O      0.891200000000     0.874650000000     0.450650000000     0          
O        O      0.937750000000     0.816750000000     0.397175000000     0          
O        O      0.865150000000     0.810050000000     0.402550000000     0          
O        O      0.939400000000     0.884850000000     0.361975000000     0          
O        O      0.500000000000     0.836000000000     0.375000000000     0          
O        O      0.995050000000     0.866100000000     0.453350000000     0          
T        Si     0.909550000000     0.915700000000     0.473650000000     0          
T        Si     0.893000000000     0.794650000000     0.375300000000     0          
T        Si     0.897350000000     0.905350000000     0.321125000000     0          
T        Si     0.967950000000     0.850950000000     0.396800000000     0          
T        Si     0.500000000000     0.892450000000     0.250000000000     0          
O        O      0.541500000000     0.918750000000     0.266275000000     0          
O        O      0.617700000000     0.948050000000     0.315650000000     0          
O        O      0.593750000000     0.921400000000     0.474200000000     0          
O        O      0.608800000000     0.874650000000     0.299350000000     0          
O        O      0.562250000000     0.816750000000     0.352825000000     0          
O        O      0.634850000000     0.810050000000     0.347450000000     0          
O        O      0.560600000000     0.884850000000     0.388025000000     0          
O        O      0.504950000000     0.866100000000     0.296650000000     0          
T        Si     0.590450000000     0.915700000000     0.276350000000     0          
T        Si     0.607000000000     0.794650000000     0.374700000000     0          
T        Si     0.602650000000     0.905350000000     0.428875000000     0          
T        Si     0.532050000000     0.850950000000     0.353200000000     0          
O        O      0.791500000000     0.831250000000     0.266275000000     0          
O        O      0.867700000000     0.801950000000     0.315650000000     0          
O        O      0.843750000000     0.828600000000     0.474200000000     0          
O        O      0.858800000000     0.875350000000     0.299350000000     0          
O        O      0.812250000000     0.933250000000     0.352825000000     0          
O        O      0.848450000000     0.500000000000     0.364000000000     0          
O        O      0.884850000000     0.939950000000     0.347450000000     0          
O        O      0.810600000000     0.865150000000     0.388025000000     0          
O        O      0.750000000000     0.914000000000     0.375000000000     0          
O        O      0.754950000000     0.883900000000     0.296650000000     0          
T        Si     0.840450000000     0.834300000000     0.276350000000     0          
T        Si     0.857000000000     0.955350000000     0.374700000000     0          
T        Si     0.852650000000     0.844650000000     0.428875000000     0          
T        Si     0.782050000000     0.899050000000     0.353200000000     0          
T        Si     0.750000000000     0.857550000000     0.250000000000     0          
O        O      0.708500000000     0.831250000000     0.483725000000     0          
O        O      0.632300000000     0.801950000000     0.434350000000     0          
O        O      0.656250000000     0.828600000000     0.275800000000     0          
O        O      0.641200000000     0.875350000000     0.450650000000     0          
O        O      0.687750000000     0.933250000000     0.397175000000     0          
O        O      0.651550000000     0.500000000000     0.386000000000     0          
O        O      0.615150000000     0.939950000000     0.402550000000     0          
O        O      0.689400000000     0.865150000000     0.361975000000     0          
O        O      0.745050000000     0.883900000000     0.453350000000     0          
T        Si     0.659550000000     0.834300000000     0.473650000000     0          
T        Si     0.643000000000     0.955350000000     0.375300000000     0          
T        Si     0.647350000000     0.844650000000     0.321125000000     0          
T        Si     0.717950000000     0.899050000000     0.396800000000     0          
O        O      0.708500000000     0.668750000000     0.483725000000     0          
O        O      0.632300000000     0.698050000000     0.434350000000     0          
O        O      0.656250000000     0.671400000000     0.275800000000     0          
O        O      0.641200000000     0.624650000000     0.450650000000     0          
O        O      0.687750000000     0.566750000000     0.397175000000     0          
O        O      0.615150000000     0.560050000000     0.402550000000     0          
O        O      0.689400000000     0.634850000000     0.361975000000     0          
O        O      0.750000000000     0.586000000000     0.375000000000     0          
O        O      0.745050000000     0.616100000000     0.453350000000     0          
T        Si     0.659550000000     0.665700000000     0.473650000000     0          
T        Si     0.643000000000     0.544650000000     0.375300000000     0          
T        Si     0.647350000000     0.655350000000     0.321125000000     0          
T        Si     0.717950000000     0.600950000000     0.396800000000     0          
T        Si     0.750000000000     0.642450000000     0.250000000000     0          
O        O      0.791500000000     0.668750000000     0.266275000000     0          
O        O      0.867700000000     0.698050000000     0.315650000000     0          
O        O      0.843750000000     0.671400000000     0.474200000000     0          
O        O      0.858800000000     0.624650000000     0.299350000000     0          
O        O      0.812250000000     0.566750000000     0.352825000000     0          
O        O      0.884850000000     0.560050000000     0.347450000000     0          
O        O      0.810600000000     0.634850000000     0.388025000000     0          
O        O      0.754950000000     0.616100000000     0.296650000000     0          
T        Si     0.840450000000     0.665700000000     0.276350000000     0          
T        Si     0.857000000000     0.544650000000     0.374700000000     0          
T        Si     0.852650000000     0.655350000000     0.428875000000     0          
T        Si     0.782050000000     0.600950000000     0.353200000000     0          
O        O      0.541500000000     0.581250000000     0.516275000000     0          
O        O      0.617700000000     0.551950000000     0.565650000000     0          
O        O      0.593750000000     0.578600000000     0.724200000000     0          
O        O      0.608800000000     0.625350000000     0.549350000000     0          
O        O      0.562250000000     0.683250000000     0.602825000000     0          
O        O      0.598450000000     0.750000000000     0.614000000000     0          
O        O      0.634850000000     0.689950000000     0.597450000000     0          
O        O      0.560600000000     0.615150000000     0.638025000000     0          
O        O      0.500000000000     0.664000000000     0.625000000000     0          
O        O      0.504950000000     0.633900000000     0.546650000000     0          
T        Si     0.590450000000     0.584300000000     0.526350000000     0          
T        Si     0.607000000000     0.705350000000     0.624700000000     0          
T        Si     0.602650000000     0.594650000000     0.678875000000     0          
T        Si     0.532050000000     0.649050000000     0.603200000000     0          
T        Si     0.500000000000     0.607550000000     0.500000000000     0          
O        O      0.958500000000     0.581250000000     0.733725000000     0          
O        O      0.882300000000     0.551950000000     0.684350000000     0          
O        O      0.906250000000     0.578600000000     0.525800000000     0          
O        O      0.891200000000     0.625350000000     0.700650000000     0          
O        O      0.937750000000     0.683250000000     0.647175000000     0          
O        O      0.901550000000     0.750000000000     0.636000000000     0          
O        O      0.865150000000     0.689950000000     0.652550000000     0          
O        O      0.939400000000     0.615150000000     0.611975000000     0          
O        O      0.995050000000     0.633900000000     0.703350000000     0          
T        Si     0.909550000000     0.584300000000     0.723650000000     0          
T        Si     0.893000000000     0.705350000000     0.625300000000     0          
T        Si     0.897350000000     0.594650000000     0.571125000000     0          
T        Si     0.967950000000     0.649050000000     0.646800000000     0          
O        O      0.958500000000     0.918750000000     0.733725000000     0          
O        O      0.882300000000     0.948050000000     0.684350000000     0          
O        O      0.906250000000     0.921400000000     0.525800000000     0          
O        O      0.891200000000     0.874650000000     0.700650000000     0          
O        O      0.937750000000     0.816750000000     0.647175000000     0          
O        O      0.865150000000     0.810050000000     0.652550000000     0          
O        O      0.939400000000     0.884850000000     0.611975000000     0          
O        O      0.500000000000     0.836000000000     0.625000000000     0          
O        O      0.995050000000     0.866100000000     0.703350000000     0          
T        Si     0.909550000000     0.915700000000     0.723650000000     0          
T        Si     0.893000000000     0.794650000000     0.625300000000     0          
T        Si     0.897350000000     0.905350000000     0.571125000000     0          
T        Si     0.967950000000     0.850950000000     0.646800000000     0          
T        Si     0.500000000000     0.892450000000     0.500000000000     0          
O        O      0.541500000000     0.918750000000     0.516275000000     0          
O        O      0.617700000000     0.948050000000     0.565650000000     0          
O        O      0.593750000000     0.921400000000     0.724200000000     0          
O        O      0.608800000000     0.874650000000     0.549350000000     0          
O        O      0.562250000000     0.816750000000     0.602825000000     0          
O        O      0.634850000000     0.810050000000     0.597450000000     0          
O        O      0.560600000000     0.884850000000     0.638025000000     0          
O        O      0.504950000000     0.866100000000     0.546650000000     0          
T        Si     0.590450000000     0.915700000000     0.526350000000     0          
T        Si     0.607000000000     0.794650000000     0.624700000000     0          
T        Si     0.602650000000     0.905350000000     0.678875000000     0          
T        Si     0.532050000000     0.850950000000     0.603200000000     0          
O        O      0.791500000000     0.831250000000     0.516275000000     0          
O        O      0.867700000000     0.801950000000     0.565650000000     0          
O        O      0.843750000000     0.828600000000     0.724200000000     0          
O        O      0.858800000000     0.875350000000     0.549350000000     0          
O        O      0.812250000000     0.933250000000     0.602825000000     0          
O        O      0.848450000000     0.500000000000     0.614000000000     0          
O        O      0.884850000000     0.939950000000     0.597450000000     0          
O        O      0.810600000000     0.865150000000     0.638025000000     0          
O        O      0.750000000000     0.914000000000     0.625000000000     0          
O        O      0.754950000000     0.883900000000     0.546650000000     0          
T        Si     0.840450000000     0.834300000000     0.526350000000     0          
T        Si     0.857000000000     0.955350000000     0.624700000000     0          
T        Si     0.852650000000     0.844650000000     0.678875000000     0          
T        Si     0.782050000000     0.899050000000     0.603200000000     0          
T        Si     0.750000000000     0.857550000000     0.500000000000     0          
O        O      0.708500000000     0.831250000000     0.733725000000     0          
O        O      0.632300000000     0.801950000000     0.684350000000     0          
O        O      0.656250000000     0.828600000000     0.525800000000     0          
O        O      0.641200000000     0.875350000000     0.700650000000     0          
O        O      0.687750000000     0.933250000000     0.647175000000     0          
O        O      0.651550000000     0.500000000000     0.636000000000     0          
O        O      0.615150000000     0.939950000000     0.652550000000     0          
O        O      0.689400000000     0.865150000000     0.611975000000     0          
O        O      0.745050000000     0.883900000000     0.703350000000     0          
T        Si     0.659550000000     0.834300000000     0.723650000000     0          
T        Si     0.643000000000     0.955350000000     0.625300000000     0          
T        Si     0.647350000000     0.844650000000     0.571125000000     0          
T        Si     0.717950000000     0.899050000000     0.646800000000     0          
O        O      0.708500000000     0.668750000000     0.733725000000     0          
O        O      0.632300000000     0.698050000000     0.684350000000     0          
O        O      0.656250000000     0.671400000000     0.525800000000     0          
O        O      0.641200000000     0.624650000000     0.700650000000     0          
O        O      0.687750000000     0.566750000000     0.647175000000     0          
O        O      0.615150000000     0.560050000000     0.652550000000     0          
O        O      0.689400000000     0.634850000000     0.611975000000     0          
O        O      0.750000000000     0.586000000000     0.625000000000     0          
O        O      0.745050000000     0.616100000000     0.703350000000     0          
T        Si     0.659550000000     0.665700000000     0.723650000000     0          
T        Si     0.643000000000     0.544650000000     0.625300000000     0          
T        Si     0.647350000000     0.655350000000     0.571125000000     0          
T        Si     0.717950000000     0.600950000000     0.646800000000     0          
T        Si     0.750000000000     0.642450000000     0.500000000000     0          
O        O      0.791500000000     0.668750000000     0.516275000000     0          
O        O      0.867700000000     0.698050000000     0.565650000000     0          
O        O      0.843750000000     0.671400000000     0.724200000000     0          
O        O      0.858800000000     0.624650000000     0.549350000000     0          
O        O      0.812250000000     0.566750000000     0.602825000000     0          
O        O      0.884850000000     0.560050000000     0.597450000000     0          
O        O      0.810600000000     0.634850000000     0.638025000000     0          
O        O      0.754950000000     0.616100000000     0.546650000000     0          
T        Si     0.840450000000     0.665700000000     0.526350000000     0          
T        Si     0.857000000000     0.544650000000     0.624700000000     0          
T        Si     0.852650000000     0.655350000000     0.678875000000     0          
T        Si     0.782050000000     0.600950000000     0.603200000000     0          
O        O      0.541500000000     0.581250000000     0.766275000000     0          
O        O      0.617700000000     0.551950000000     0.815650000000     0          
O        O      0.593750000000     0.578600000000     0.974200000000     0          
O        O      0.608800000000     0.625350000000     0.799350000000     0          
O        O      0.562250000000     0.683250000000     0.852825000000     0          
O        O      0.598450000000     0.750000000000     0.864000000000     0          
O        O      0.634850000000     0.689950000000     0.847450000000     0          
O        O      0.560600000000     0.615150000000     0.888025000000     0          
O        O      0.500000000000     0.664000000000     0.875000000000     0          
O        O      0.504950000000     0.633900000000     0.796650000000     0          
T        Si     0.590450000000     0.584300000000     0.776350000000     0          
T        Si     0.607000000000     0.705350000000     0.874700000000     0          
T        Si     0.602650000000     0.594650000000     0.928875000000     0          
T        Si     0.532050000000     0.649050000000     0.853200000000     0          
T        Si     0.500000000000     0.607550000000     0.750000000000     0          
O        O      0.958500000000     0.581250000000     0.983725000000     0          
O        O      0.882300000000     0.551950000000     0.934350000000     0          
O        O      0.906250000000     0.578600000000     0.775800000000     0          
O        O      0.891200000000     0.625350000000     0.950650000000     0          
O        O      0.937750000000     0.683250000000     0.897175000000     0          
O        O      0.901550000000     0.750000000000     0.886000000000     0          
O        O      0.865150000000     0.689950000000     0.902550000000     0          
O        O      0.939400000000     0.615150000000     0.861975000000     0          
O        O      0.995050000000     0.633900000000     0.953350000000     0          
T        Si     0.909550000000     0.584300000000     0.973650000000     0          
T        Si     0.893000000000     0.705350000000     0.875300000000     0          
T        Si     0.897350000000     0.594650000000     0.821125000000     0          
T        Si     0.967950000000     0.649050000000     0.896800000000     0          
O        O      0.958500000000     0.918750000000     0.983725000000     0          
O        O      0.882300000000     0.948050000000     0.934350000000     0          
O        O      0.906250000000     0.921400000000     0.775800000000     0          
O        O      0.891200000000     0.874650000000     0.950650000000     0          
O        O      0.937750000000     0.816750000000     0.897175000000     0          
O        O      0.865150000000     0.810050000000     0.902550000000     0          
O        O      0.939400000000     0.884850000000     0.861975000000     0          
O        O      0.500000000000     0.836000000000     0.875000000000     0          
O        O      0.995050000000     0.866100000000     0.953350000000     0          
T        Si     0.909550000000     0.915700000000     0.973650000000     0          
T        Si     0.893000000000     0.794650000000     0.875300000000     0          
T        Si     0.897350000000     0.905350000000     0.821125000000     0          
T        Si     0.967950000000     0.850950000000     0.896800000000     0          
T        Si     0.500000000000     0.892450000000     0.750000000000     0          
O        O      0.541500000000     0.918750000000     0.766275000000     0          
O        O      0.617700000000     0.948050000000     0.815650000000     0          
O        O      0.593750000000     0.921400000000     0.974200000000     0          
O        O      0.608800000000     0.874650000000     0.799350000000     0          
O        O      0.562250000000     0.816750000000     0.852825000000     0          
O        O      0.634850000000     0.810050000000     0.847450000000     0          
O        O      0.560600000000     0.884850000000     0.888025000000     0          
O        O      0.504950000000     0.866100000000     0.796650000000     0          
T        Si     0.590450000000     0.915700000000     0.776350000000     0          
T        Si     0.607000000000     0.794650000000     0.874700000000     0          
T        Si     0.602650000000     0.905350000000     0.928875000000     0          
T        Si     0.532050000000     0.850950000000     0.853200000000     0          
O        O      0.791500000000     0.831250000000     0.766275000000     0          
O        O      0.867700000000     0.801950000000     0.815650000000     0          
O        O      0.843750000000     0.828600000000     0.974200000000     0          
O        O      0.858800000000     0.875350000000     0.799350000000     0          
O        O      0.812250000000     0.933250000000     0.852825000000     0          
O        O      0.848450000000     0.500000000000     0.864000000000     0          
O        O      0.884850000000     0.939950000000     0.847450000000     0          
O        O      0.810600000000     0.865150000000     0.888025000000     0          
O        O      0.750000000000     0.914000000000     0.875000000000     0          
O        O      0.754950000000     0.883900000000     0.796650000000     0          
T        Si     0.840450000000     0.834300000000     0.776350000000     0          
T        Si     0.857000000000     0.955350000000     0.874700000000     0          
T        Si     0.852650000000     0.844650000000     0.928875000000     0          
T        Si     0.782050000000     0.899050000000     0.853200000000     0          
T        Si     0.750000000000     0.857550000000     0.750000000000     0          
O        O      0.708500000000     0.831250000000     0.983725000000     0          
O        O      0.632300000000     0.801950000000     0.934350000000     0          
O        O      0.656250000000     0.828600000000     0.775800000000     0          
O        O      0.641200000000     0.875350000000     0.950650000000     0          
O        O      0.687750000000     0.933250000000     0.897175000000     0          
O        O      0.651550000000     0.500000000000     0.886000000000     0          
O        O      0.615150000000     0.939950000000     0.902550000000     0          
O        O      0.689400000000     0.865150000000     0.861975000000     0          
O        O      0.745050000000     0.883900000000     0.953350000000     0          
T        Si     0.659550000000     0.834300000000     0.973650000000     0          
T        Si     0.643000000000     0.955350000000     0.875300000000     0          
T        Si     0.647350000000     0.844650000000     0.821125000000     0          
T        Si     0.717950000000     0.899050000000     0.896800000000     0          
O        O      0.708500000000     0.668750000000     0.983725000000     0          
O        O      0.632300000000     0.698050000000     0.934350000000     0          
O        O      0.656250000000     0.671400000000     0.775800000000     0          
O        O      0.641200000000     0.624650000000     0.950650000000     0          
O        O      0.687750000000     0.566750000000     0.897175000000     0          
O        O      0.615150000000     0.560050000000     0.902550000000     0          
O        O      0.689400000000     0.634850000000     0.861975000000     0          
O        O      0.750000000000     0.586000000000     0.875000000000     0          
O        O      0.745050000000     0.616100000000     0.953350000000     0          
T        Si     0.659550000000     0.665700000000     0.973650000000     0          
T        Si     0.643000000000     0.544650000000     0.875300000000     0          
T        Si     0.647350000000     0.655350000000     0.821125000000     0          
T        Si     0.717950000000     0.600950000000     0.896800000000     0          
T        Si     0.750000000000     0.642450000000     0.750000000000     0          
O        O      0.791500000000     0.668750000000     0.766275000000     0          
O        O      0.867700000000     0.698050000000     0.815650000000     0          
O        O      0.843750000000     0.671400000000     0.974200000000     0          
O        O      0.858800000000     0.624650000000     0.799350000000     0          
O        O      0.812250000000     0.566750000000     0.852825000000     0          
O        O      0.884850000000     0.560050000000     0.847450000000     0          
O        O      0.810600000000     0.634850000000     0.888025000000     0          
O        O      0.754950000000     0.616100000000     0.796650000000     0          
T        Si     0.840450000000     0.665700000000     0.776350000000     0          
T        Si     0.857000000000     0.544650000000     0.874700000000     0          
T        Si     0.852650000000     0.655350000000     0.928875000000     0          
T        Si     0.782050000000     0.600950000000     0.853200000000     0          


