data_zeolite

_audit_creation_method RASPA-1.0
_audit_creation_date 2021-6-6
_audit_author_name ''

_cell_length_a    13.705
_cell_length_b    13.705
_cell_length_c    13.705
_cell_angle_alpha 90
_cell_angle_beta  90
_cell_angle_gamma 90
_cell_volume      20593.4

_symmetry_cell_setting          cubic
_symmetry_space_group_name_Hall 'P 1'
_symmetry_space_group_name_H-M  'P 1'
_symmetry_Int_Tables_number     1

_symmetry_equiv_pos_as_xyz 'x,y,z'

loop_
_atom_site_label
_atom_site_type_symbol
_atom_site_fract_x
_atom_site_fract_y
_atom_site_fract_z
_atom_site_charge
T        Si     0.000000000000     0.154900000000     0.056200000000     0          
T        Si     0.091150000000     0.091150000000     0.091150000000     0          
T        Si     0.125000000000     0.000000000000     0.250000000000     0          
T        Si     0.095100000000     0.250000000000     0.306200000000     0          
T        Si     0.158850000000     0.341150000000     0.341150000000     0          
T        Si     0.250000000000     0.375000000000     0.000000000000     0          
T        Si     0.000000000000     0.345100000000     0.056200000000     0          
T        Si     0.408850000000     0.408850000000     0.091150000000     0          
T        Si     0.375000000000     0.000000000000     0.250000000000     0          
T        Si     0.404900000000     0.250000000000     0.306200000000     0          
T        Si     0.341150000000     0.158850000000     0.341150000000     0          
T        Si     0.250000000000     0.125000000000     0.000000000000     0          
T        Si     0.000000000000     0.345100000000     0.443800000000     0          
T        Si     0.091150000000     0.408850000000     0.408850000000     0          
T        Si     0.404900000000     0.250000000000     0.193800000000     0          
T        Si     0.341150000000     0.341150000000     0.158850000000     0          
T        Si     0.000000000000     0.154900000000     0.443800000000     0          
T        Si     0.408850000000     0.091150000000     0.408850000000     0          
T        Si     0.095100000000     0.250000000000     0.193800000000     0          
T        Si     0.158850000000     0.158850000000     0.158850000000     0          
T        Si     0.056200000000     0.000000000000     0.154900000000     0          
T        Si     0.250000000000     0.306200000000     0.404900000000     0          
T        Si     0.443800000000     0.000000000000     0.154900000000     0          
T        Si     0.250000000000     0.193800000000     0.404900000000     0          
T        Si     0.056200000000     0.000000000000     0.345100000000     0          
T        Si     0.250000000000     0.306200000000     0.095100000000     0          
T        Si     0.443800000000     0.000000000000     0.345100000000     0          
T        Si     0.250000000000     0.193800000000     0.095100000000     0          
T        Si     0.154900000000     0.056200000000     0.000000000000     0          
T        Si     0.000000000000     0.250000000000     0.125000000000     0          
T        Si     0.154900000000     0.443800000000     0.000000000000     0          
T        Si     0.000000000000     0.250000000000     0.375000000000     0          
T        Si     0.306200000000     0.404900000000     0.250000000000     0          
T        Si     0.345100000000     0.056200000000     0.000000000000     0          
T        Si     0.193800000000     0.095100000000     0.250000000000     0          
T        Si     0.345100000000     0.443800000000     0.000000000000     0          
T        Si     0.306200000000     0.095100000000     0.250000000000     0          
T        Si     0.193800000000     0.404900000000     0.250000000000     0          
T        Si     0.408850000000     0.408850000000     0.408850000000     0          
T        Si     0.341150000000     0.158850000000     0.158850000000     0          
T        Si     0.091150000000     0.091150000000     0.408850000000     0          
T        Si     0.158850000000     0.341150000000     0.158850000000     0          
T        Si     0.408850000000     0.091150000000     0.091150000000     0          
T        Si     0.158850000000     0.158850000000     0.341150000000     0          
T        Si     0.091150000000     0.408850000000     0.091150000000     0          
T        Si     0.341150000000     0.341150000000     0.341150000000     0          
T        Si     0.000000000000     0.154900000000     0.556200000000     0          
T        Si     0.091150000000     0.091150000000     0.591150000000     0          
T        Si     0.125000000000     0.000000000000     0.750000000000     0          
T        Si     0.095100000000     0.250000000000     0.806200000000     0          
T        Si     0.158850000000     0.341150000000     0.841150000000     0          
T        Si     0.250000000000     0.375000000000     0.500000000000     0          
T        Si     0.000000000000     0.345100000000     0.556200000000     0          
T        Si     0.408850000000     0.408850000000     0.591150000000     0          
T        Si     0.375000000000     0.000000000000     0.750000000000     0          
T        Si     0.404900000000     0.250000000000     0.806200000000     0          
T        Si     0.341150000000     0.158850000000     0.841150000000     0          
T        Si     0.250000000000     0.125000000000     0.500000000000     0          
T        Si     0.000000000000     0.345100000000     0.943800000000     0          
T        Si     0.091150000000     0.408850000000     0.908850000000     0          
T        Si     0.404900000000     0.250000000000     0.693800000000     0          
T        Si     0.341150000000     0.341150000000     0.658850000000     0          
T        Si     0.000000000000     0.154900000000     0.943800000000     0          
T        Si     0.408850000000     0.091150000000     0.908850000000     0          
T        Si     0.095100000000     0.250000000000     0.693800000000     0          
T        Si     0.158850000000     0.158850000000     0.658850000000     0          
T        Si     0.056200000000     0.000000000000     0.654900000000     0          
T        Si     0.250000000000     0.306200000000     0.904900000000     0          
T        Si     0.443800000000     0.000000000000     0.654900000000     0          
T        Si     0.250000000000     0.193800000000     0.904900000000     0          
T        Si     0.056200000000     0.000000000000     0.845100000000     0          
T        Si     0.250000000000     0.306200000000     0.595100000000     0          
T        Si     0.443800000000     0.000000000000     0.845100000000     0          
T        Si     0.250000000000     0.193800000000     0.595100000000     0          
T        Si     0.154900000000     0.056200000000     0.500000000000     0          
T        Si     0.000000000000     0.250000000000     0.625000000000     0          
T        Si     0.154900000000     0.443800000000     0.500000000000     0          
T        Si     0.000000000000     0.250000000000     0.875000000000     0          
T        Si     0.306200000000     0.404900000000     0.750000000000     0          
T        Si     0.345100000000     0.056200000000     0.500000000000     0          
T        Si     0.193800000000     0.095100000000     0.750000000000     0          
T        Si     0.345100000000     0.443800000000     0.500000000000     0          
T        Si     0.306200000000     0.095100000000     0.750000000000     0          
T        Si     0.193800000000     0.404900000000     0.750000000000     0          
T        Si     0.408850000000     0.408850000000     0.908850000000     0          
T        Si     0.341150000000     0.158850000000     0.658850000000     0          
T        Si     0.091150000000     0.091150000000     0.908850000000     0          
T        Si     0.158850000000     0.341150000000     0.658850000000     0          
T        Si     0.408850000000     0.091150000000     0.591150000000     0          
T        Si     0.158850000000     0.158850000000     0.841150000000     0          
T        Si     0.091150000000     0.408850000000     0.591150000000     0          
T        Si     0.341150000000     0.341150000000     0.841150000000     0          
T        Si     0.000000000000     0.654900000000     0.056200000000     0          
T        Si     0.091150000000     0.591150000000     0.091150000000     0          
T        Si     0.125000000000     0.500000000000     0.250000000000     0          
T        Si     0.095100000000     0.750000000000     0.306200000000     0          
T        Si     0.158850000000     0.841150000000     0.341150000000     0          
T        Si     0.250000000000     0.875000000000     0.000000000000     0          
T        Si     0.000000000000     0.845100000000     0.056200000000     0          
T        Si     0.408850000000     0.908850000000     0.091150000000     0          
T        Si     0.375000000000     0.500000000000     0.250000000000     0          
T        Si     0.404900000000     0.750000000000     0.306200000000     0          
T        Si     0.341150000000     0.658850000000     0.341150000000     0          
T        Si     0.250000000000     0.625000000000     0.000000000000     0          
T        Si     0.000000000000     0.845100000000     0.443800000000     0          
T        Si     0.091150000000     0.908850000000     0.408850000000     0          
T        Si     0.404900000000     0.750000000000     0.193800000000     0          
T        Si     0.341150000000     0.841150000000     0.158850000000     0          
T        Si     0.000000000000     0.654900000000     0.443800000000     0          
T        Si     0.408850000000     0.591150000000     0.408850000000     0          
T        Si     0.095100000000     0.750000000000     0.193800000000     0          
T        Si     0.158850000000     0.658850000000     0.158850000000     0          
T        Si     0.056200000000     0.500000000000     0.154900000000     0          
T        Si     0.250000000000     0.806200000000     0.404900000000     0          
T        Si     0.443800000000     0.500000000000     0.154900000000     0          
T        Si     0.250000000000     0.693800000000     0.404900000000     0          
T        Si     0.056200000000     0.500000000000     0.345100000000     0          
T        Si     0.250000000000     0.806200000000     0.095100000000     0          
T        Si     0.443800000000     0.500000000000     0.345100000000     0          
T        Si     0.250000000000     0.693800000000     0.095100000000     0          
T        Si     0.154900000000     0.556200000000     0.000000000000     0          
T        Si     0.000000000000     0.750000000000     0.125000000000     0          
T        Si     0.154900000000     0.943800000000     0.000000000000     0          
T        Si     0.000000000000     0.750000000000     0.375000000000     0          
T        Si     0.306200000000     0.904900000000     0.250000000000     0          
T        Si     0.345100000000     0.556200000000     0.000000000000     0          
T        Si     0.193800000000     0.595100000000     0.250000000000     0          
T        Si     0.345100000000     0.943800000000     0.000000000000     0          
T        Si     0.306200000000     0.595100000000     0.250000000000     0          
T        Si     0.193800000000     0.904900000000     0.250000000000     0          
T        Si     0.408850000000     0.908850000000     0.408850000000     0          
T        Si     0.341150000000     0.658850000000     0.158850000000     0          
T        Si     0.091150000000     0.591150000000     0.408850000000     0          
T        Si     0.158850000000     0.841150000000     0.158850000000     0          
T        Si     0.408850000000     0.591150000000     0.091150000000     0          
T        Si     0.158850000000     0.658850000000     0.341150000000     0          
T        Si     0.091150000000     0.908850000000     0.091150000000     0          
T        Si     0.341150000000     0.841150000000     0.341150000000     0          
T        Si     0.000000000000     0.654900000000     0.556200000000     0          
T        Si     0.091150000000     0.591150000000     0.591150000000     0          
T        Si     0.125000000000     0.500000000000     0.750000000000     0          
T        Si     0.095100000000     0.750000000000     0.806200000000     0          
T        Si     0.158850000000     0.841150000000     0.841150000000     0          
T        Si     0.250000000000     0.875000000000     0.500000000000     0          
T        Si     0.000000000000     0.845100000000     0.556200000000     0          
T        Si     0.408850000000     0.908850000000     0.591150000000     0          
T        Si     0.375000000000     0.500000000000     0.750000000000     0          
T        Si     0.404900000000     0.750000000000     0.806200000000     0          
T        Si     0.341150000000     0.658850000000     0.841150000000     0          
T        Si     0.250000000000     0.625000000000     0.500000000000     0          
T        Si     0.000000000000     0.845100000000     0.943800000000     0          
T        Si     0.091150000000     0.908850000000     0.908850000000     0          
T        Si     0.404900000000     0.750000000000     0.693800000000     0          
T        Si     0.341150000000     0.841150000000     0.658850000000     0          
T        Si     0.000000000000     0.654900000000     0.943800000000     0          
T        Si     0.408850000000     0.591150000000     0.908850000000     0          
T        Si     0.095100000000     0.750000000000     0.693800000000     0          
T        Si     0.158850000000     0.658850000000     0.658850000000     0          
T        Si     0.056200000000     0.500000000000     0.654900000000     0          
T        Si     0.250000000000     0.806200000000     0.904900000000     0          
T        Si     0.443800000000     0.500000000000     0.654900000000     0          
T        Si     0.250000000000     0.693800000000     0.904900000000     0          
T        Si     0.056200000000     0.500000000000     0.845100000000     0          
T        Si     0.250000000000     0.806200000000     0.595100000000     0          
T        Si     0.443800000000     0.500000000000     0.845100000000     0          
T        Si     0.250000000000     0.693800000000     0.595100000000     0          
T        Si     0.154900000000     0.556200000000     0.500000000000     0          
T        Si     0.000000000000     0.750000000000     0.625000000000     0          
T        Si     0.154900000000     0.943800000000     0.500000000000     0          
T        Si     0.000000000000     0.750000000000     0.875000000000     0          
T        Si     0.306200000000     0.904900000000     0.750000000000     0          
T        Si     0.345100000000     0.556200000000     0.500000000000     0          
T        Si     0.193800000000     0.595100000000     0.750000000000     0          
T        Si     0.345100000000     0.943800000000     0.500000000000     0          
T        Si     0.306200000000     0.595100000000     0.750000000000     0          
T        Si     0.193800000000     0.904900000000     0.750000000000     0          
T        Si     0.408850000000     0.908850000000     0.908850000000     0          
T        Si     0.341150000000     0.658850000000     0.658850000000     0          
T        Si     0.091150000000     0.591150000000     0.908850000000     0          
T        Si     0.158850000000     0.841150000000     0.658850000000     0          
T        Si     0.408850000000     0.591150000000     0.591150000000     0          
T        Si     0.158850000000     0.658850000000     0.841150000000     0          
T        Si     0.091150000000     0.908850000000     0.591150000000     0          
T        Si     0.341150000000     0.841150000000     0.841150000000     0          
T        Si     0.500000000000     0.154900000000     0.056200000000     0          
T        Si     0.591150000000     0.091150000000     0.091150000000     0          
T        Si     0.625000000000     0.000000000000     0.250000000000     0          
T        Si     0.595100000000     0.250000000000     0.306200000000     0          
T        Si     0.658850000000     0.341150000000     0.341150000000     0          
T        Si     0.750000000000     0.375000000000     0.000000000000     0          
T        Si     0.500000000000     0.345100000000     0.056200000000     0          
T        Si     0.908850000000     0.408850000000     0.091150000000     0          
T        Si     0.875000000000     0.000000000000     0.250000000000     0          
T        Si     0.904900000000     0.250000000000     0.306200000000     0          
T        Si     0.841150000000     0.158850000000     0.341150000000     0          
T        Si     0.750000000000     0.125000000000     0.000000000000     0          
T        Si     0.500000000000     0.345100000000     0.443800000000     0          
T        Si     0.591150000000     0.408850000000     0.408850000000     0          
T        Si     0.904900000000     0.250000000000     0.193800000000     0          
T        Si     0.841150000000     0.341150000000     0.158850000000     0          
T        Si     0.500000000000     0.154900000000     0.443800000000     0          
T        Si     0.908850000000     0.091150000000     0.408850000000     0          
T        Si     0.595100000000     0.250000000000     0.193800000000     0          
T        Si     0.658850000000     0.158850000000     0.158850000000     0          
T        Si     0.556200000000     0.000000000000     0.154900000000     0          
T        Si     0.750000000000     0.306200000000     0.404900000000     0          
T        Si     0.943800000000     0.000000000000     0.154900000000     0          
T        Si     0.750000000000     0.193800000000     0.404900000000     0          
T        Si     0.556200000000     0.000000000000     0.345100000000     0          
T        Si     0.750000000000     0.306200000000     0.095100000000     0          
T        Si     0.943800000000     0.000000000000     0.345100000000     0          
T        Si     0.750000000000     0.193800000000     0.095100000000     0          
T        Si     0.654900000000     0.056200000000     0.000000000000     0          
T        Si     0.500000000000     0.250000000000     0.125000000000     0          
T        Si     0.654900000000     0.443800000000     0.000000000000     0          
T        Si     0.500000000000     0.250000000000     0.375000000000     0          
T        Si     0.806200000000     0.404900000000     0.250000000000     0          
T        Si     0.845100000000     0.056200000000     0.000000000000     0          
T        Si     0.693800000000     0.095100000000     0.250000000000     0          
T        Si     0.845100000000     0.443800000000     0.000000000000     0          
T        Si     0.806200000000     0.095100000000     0.250000000000     0          
T        Si     0.693800000000     0.404900000000     0.250000000000     0          
T        Si     0.908850000000     0.408850000000     0.408850000000     0          
T        Si     0.841150000000     0.158850000000     0.158850000000     0          
T        Si     0.591150000000     0.091150000000     0.408850000000     0          
T        Si     0.658850000000     0.341150000000     0.158850000000     0          
T        Si     0.908850000000     0.091150000000     0.091150000000     0          
T        Si     0.658850000000     0.158850000000     0.341150000000     0          
T        Si     0.591150000000     0.408850000000     0.091150000000     0          
T        Si     0.841150000000     0.341150000000     0.341150000000     0          
T        Si     0.500000000000     0.154900000000     0.556200000000     0          
T        Si     0.591150000000     0.091150000000     0.591150000000     0          
T        Si     0.625000000000     0.000000000000     0.750000000000     0          
T        Si     0.595100000000     0.250000000000     0.806200000000     0          
T        Si     0.658850000000     0.341150000000     0.841150000000     0          
T        Si     0.750000000000     0.375000000000     0.500000000000     0          
T        Si     0.500000000000     0.345100000000     0.556200000000     0          
T        Si     0.908850000000     0.408850000000     0.591150000000     0          
T        Si     0.875000000000     0.000000000000     0.750000000000     0          
T        Si     0.904900000000     0.250000000000     0.806200000000     0          
T        Si     0.841150000000     0.158850000000     0.841150000000     0          
T        Si     0.750000000000     0.125000000000     0.500000000000     0          
T        Si     0.500000000000     0.345100000000     0.943800000000     0          
T        Si     0.591150000000     0.408850000000     0.908850000000     0          
T        Si     0.904900000000     0.250000000000     0.693800000000     0          
T        Si     0.841150000000     0.341150000000     0.658850000000     0          
T        Si     0.500000000000     0.154900000000     0.943800000000     0          
T        Si     0.908850000000     0.091150000000     0.908850000000     0          
T        Si     0.595100000000     0.250000000000     0.693800000000     0          
T        Si     0.658850000000     0.158850000000     0.658850000000     0          
T        Si     0.556200000000     0.000000000000     0.654900000000     0          
T        Si     0.750000000000     0.306200000000     0.904900000000     0          
T        Si     0.943800000000     0.000000000000     0.654900000000     0          
T        Si     0.750000000000     0.193800000000     0.904900000000     0          
T        Si     0.556200000000     0.000000000000     0.845100000000     0          
T        Si     0.750000000000     0.306200000000     0.595100000000     0          
T        Si     0.943800000000     0.000000000000     0.845100000000     0          
T        Si     0.750000000000     0.193800000000     0.595100000000     0          
T        Si     0.654900000000     0.056200000000     0.500000000000     0          
T        Si     0.500000000000     0.250000000000     0.625000000000     0          
T        Si     0.654900000000     0.443800000000     0.500000000000     0          
T        Si     0.500000000000     0.250000000000     0.875000000000     0          
T        Si     0.806200000000     0.404900000000     0.750000000000     0          
T        Si     0.845100000000     0.056200000000     0.500000000000     0          
T        Si     0.693800000000     0.095100000000     0.750000000000     0          
T        Si     0.845100000000     0.443800000000     0.500000000000     0          
T        Si     0.806200000000     0.095100000000     0.750000000000     0          
T        Si     0.693800000000     0.404900000000     0.750000000000     0          
T        Si     0.908850000000     0.408850000000     0.908850000000     0          
T        Si     0.841150000000     0.158850000000     0.658850000000     0          
T        Si     0.591150000000     0.091150000000     0.908850000000     0          
T        Si     0.658850000000     0.341150000000     0.658850000000     0          
T        Si     0.908850000000     0.091150000000     0.591150000000     0          
T        Si     0.658850000000     0.158850000000     0.841150000000     0          
T        Si     0.591150000000     0.408850000000     0.591150000000     0          
T        Si     0.841150000000     0.341150000000     0.841150000000     0          
T        Si     0.500000000000     0.654900000000     0.056200000000     0          
T        Si     0.591150000000     0.591150000000     0.091150000000     0          
T        Si     0.625000000000     0.500000000000     0.250000000000     0          
T        Si     0.595100000000     0.750000000000     0.306200000000     0          
T        Si     0.658850000000     0.841150000000     0.341150000000     0          
T        Si     0.750000000000     0.875000000000     0.000000000000     0          
T        Si     0.500000000000     0.845100000000     0.056200000000     0          
T        Si     0.908850000000     0.908850000000     0.091150000000     0          
T        Si     0.875000000000     0.500000000000     0.250000000000     0          
T        Si     0.904900000000     0.750000000000     0.306200000000     0          
T        Si     0.841150000000     0.658850000000     0.341150000000     0          
T        Si     0.750000000000     0.625000000000     0.000000000000     0          
T        Si     0.500000000000     0.845100000000     0.443800000000     0          
T        Si     0.591150000000     0.908850000000     0.408850000000     0          
T        Si     0.904900000000     0.750000000000     0.193800000000     0          
T        Si     0.841150000000     0.841150000000     0.158850000000     0          
T        Si     0.500000000000     0.654900000000     0.443800000000     0          
T        Si     0.908850000000     0.591150000000     0.408850000000     0          
T        Si     0.595100000000     0.750000000000     0.193800000000     0          
T        Si     0.658850000000     0.658850000000     0.158850000000     0          
T        Si     0.556200000000     0.500000000000     0.154900000000     0          
T        Si     0.750000000000     0.806200000000     0.404900000000     0          
T        Si     0.943800000000     0.500000000000     0.154900000000     0          
T        Si     0.750000000000     0.693800000000     0.404900000000     0          
T        Si     0.556200000000     0.500000000000     0.345100000000     0          
T        Si     0.750000000000     0.806200000000     0.095100000000     0          
T        Si     0.943800000000     0.500000000000     0.345100000000     0          
T        Si     0.750000000000     0.693800000000     0.095100000000     0          
T        Si     0.654900000000     0.556200000000     0.000000000000     0          
T        Si     0.500000000000     0.750000000000     0.125000000000     0          
T        Si     0.654900000000     0.943800000000     0.000000000000     0          
T        Si     0.500000000000     0.750000000000     0.375000000000     0          
T        Si     0.806200000000     0.904900000000     0.250000000000     0          
T        Si     0.845100000000     0.556200000000     0.000000000000     0          
T        Si     0.693800000000     0.595100000000     0.250000000000     0          
T        Si     0.845100000000     0.943800000000     0.000000000000     0          
T        Si     0.806200000000     0.595100000000     0.250000000000     0          
T        Si     0.693800000000     0.904900000000     0.250000000000     0          
T        Si     0.908850000000     0.908850000000     0.408850000000     0          
T        Si     0.841150000000     0.658850000000     0.158850000000     0          
T        Si     0.591150000000     0.591150000000     0.408850000000     0          
T        Si     0.658850000000     0.841150000000     0.158850000000     0          
T        Si     0.908850000000     0.591150000000     0.091150000000     0          
T        Si     0.658850000000     0.658850000000     0.341150000000     0          
T        Si     0.591150000000     0.908850000000     0.091150000000     0          
T        Si     0.841150000000     0.841150000000     0.341150000000     0          
T        Si     0.500000000000     0.654900000000     0.556200000000     0          
T        Si     0.591150000000     0.591150000000     0.591150000000     0          
T        Si     0.625000000000     0.500000000000     0.750000000000     0          
T        Si     0.595100000000     0.750000000000     0.806200000000     0          
T        Si     0.658850000000     0.841150000000     0.841150000000     0          
T        Si     0.750000000000     0.875000000000     0.500000000000     0          
T        Si     0.500000000000     0.845100000000     0.556200000000     0          
T        Si     0.908850000000     0.908850000000     0.591150000000     0          
T        Si     0.875000000000     0.500000000000     0.750000000000     0          
T        Si     0.904900000000     0.750000000000     0.806200000000     0          
T        Si     0.841150000000     0.658850000000     0.841150000000     0          
T        Si     0.750000000000     0.625000000000     0.500000000000     0          
T        Si     0.500000000000     0.845100000000     0.943800000000     0          
T        Si     0.591150000000     0.908850000000     0.908850000000     0          
T        Si     0.904900000000     0.750000000000     0.693800000000     0          
T        Si     0.841150000000     0.841150000000     0.658850000000     0          
T        Si     0.500000000000     0.654900000000     0.943800000000     0          
T        Si     0.908850000000     0.591150000000     0.908850000000     0          
T        Si     0.595100000000     0.750000000000     0.693800000000     0          
T        Si     0.658850000000     0.658850000000     0.658850000000     0          
T        Si     0.556200000000     0.500000000000     0.654900000000     0          
T        Si     0.750000000000     0.806200000000     0.904900000000     0          
T        Si     0.943800000000     0.500000000000     0.654900000000     0          
T        Si     0.750000000000     0.693800000000     0.904900000000     0          
T        Si     0.556200000000     0.500000000000     0.845100000000     0          
T        Si     0.750000000000     0.806200000000     0.595100000000     0          
T        Si     0.943800000000     0.500000000000     0.845100000000     0          
T        Si     0.750000000000     0.693800000000     0.595100000000     0          
T        Si     0.654900000000     0.556200000000     0.500000000000     0          
T        Si     0.500000000000     0.750000000000     0.625000000000     0          
T        Si     0.654900000000     0.943800000000     0.500000000000     0          
T        Si     0.500000000000     0.750000000000     0.875000000000     0          
T        Si     0.806200000000     0.904900000000     0.750000000000     0          
T        Si     0.845100000000     0.556200000000     0.500000000000     0          
T        Si     0.693800000000     0.595100000000     0.750000000000     0          
T        Si     0.845100000000     0.943800000000     0.500000000000     0          
T        Si     0.806200000000     0.595100000000     0.750000000000     0          
T        Si     0.693800000000     0.904900000000     0.750000000000     0          
T        Si     0.908850000000     0.908850000000     0.908850000000     0          
T        Si     0.841150000000     0.658850000000     0.658850000000     0          
T        Si     0.591150000000     0.591150000000     0.908850000000     0          
T        Si     0.658850000000     0.841150000000     0.658850000000     0          
T        Si     0.908850000000     0.591150000000     0.591150000000     0          
T        Si     0.658850000000     0.658850000000     0.841150000000     0          
T        Si     0.591150000000     0.908850000000     0.591150000000     0          
T        Si     0.841150000000     0.841150000000     0.841150000000     0          
O        O      0.000000000000     0.171950000000     0.000000000000     0          
O        O      0.048100000000     0.123100000000     0.067200000000     0          
O        O      0.000000000000     0.202100000000     0.091100000000     0          
O        O      0.125000000000     0.125000000000     0.125000000000     0          
O        O      0.078050000000     0.250000000000     0.250000000000     0          
O        O      0.126900000000     0.298100000000     0.317200000000     0          
O        O      0.047900000000     0.250000000000     0.341100000000     0          
O        O      0.125000000000     0.375000000000     0.375000000000     0          
O        O      0.000000000000     0.328050000000     0.000000000000     0          
O        O      0.451900000000     0.376900000000     0.067200000000     0          
O        O      0.000000000000     0.297900000000     0.091100000000     0          
O        O      0.375000000000     0.375000000000     0.125000000000     0          
O        O      0.421950000000     0.250000000000     0.250000000000     0          
O        O      0.373100000000     0.201900000000     0.317200000000     0          
O        O      0.452100000000     0.250000000000     0.341100000000     0          
O        O      0.375000000000     0.125000000000     0.375000000000     0          
O        O      0.048100000000     0.376900000000     0.432800000000     0          
O        O      0.000000000000     0.297900000000     0.408900000000     0          
O        O      0.373100000000     0.298100000000     0.182800000000     0          
O        O      0.452100000000     0.250000000000     0.158900000000     0          
O        O      0.451900000000     0.123100000000     0.432800000000     0          
O        O      0.000000000000     0.202100000000     0.408900000000     0          
O        O      0.126900000000     0.201900000000     0.182800000000     0          
O        O      0.047900000000     0.250000000000     0.158900000000     0          
O        O      0.000000000000     0.000000000000     0.171950000000     0          
O        O      0.067200000000     0.048100000000     0.123100000000     0          
O        O      0.091100000000     0.000000000000     0.202100000000     0          
O        O      0.250000000000     0.250000000000     0.421950000000     0          
O        O      0.201900000000     0.317200000000     0.373100000000     0          
O        O      0.250000000000     0.341100000000     0.452100000000     0          
O        O      0.432800000000     0.451900000000     0.123100000000     0          
O        O      0.408900000000     0.000000000000     0.202100000000     0          
O        O      0.298100000000     0.182800000000     0.373100000000     0          
O        O      0.250000000000     0.158900000000     0.452100000000     0          
O        O      0.000000000000     0.000000000000     0.328050000000     0          
O        O      0.067200000000     0.451900000000     0.376900000000     0          
O        O      0.091100000000     0.000000000000     0.297900000000     0          
O        O      0.250000000000     0.250000000000     0.078050000000     0          
O        O      0.298100000000     0.317200000000     0.126900000000     0          
O        O      0.250000000000     0.341100000000     0.047900000000     0          
O        O      0.432800000000     0.048100000000     0.376900000000     0          
O        O      0.408900000000     0.000000000000     0.297900000000     0          
O        O      0.201900000000     0.182800000000     0.126900000000     0          
O        O      0.250000000000     0.158900000000     0.047900000000     0          
O        O      0.171950000000     0.000000000000     0.000000000000     0          
O        O      0.123100000000     0.067200000000     0.048100000000     0          
O        O      0.202100000000     0.091100000000     0.000000000000     0          
O        O      0.123100000000     0.432800000000     0.451900000000     0          
O        O      0.202100000000     0.408900000000     0.000000000000     0          
O        O      0.250000000000     0.421950000000     0.250000000000     0          
O        O      0.317200000000     0.373100000000     0.201900000000     0          
O        O      0.341100000000     0.452100000000     0.250000000000     0          
O        O      0.328050000000     0.000000000000     0.000000000000     0          
O        O      0.376900000000     0.067200000000     0.451900000000     0          
O        O      0.297900000000     0.091100000000     0.000000000000     0          
O        O      0.250000000000     0.078050000000     0.250000000000     0          
O        O      0.182800000000     0.126900000000     0.201900000000     0          
O        O      0.158900000000     0.047900000000     0.250000000000     0          
O        O      0.376900000000     0.432800000000     0.048100000000     0          
O        O      0.297900000000     0.408900000000     0.000000000000     0          
O        O      0.317200000000     0.126900000000     0.298100000000     0          
O        O      0.341100000000     0.047900000000     0.250000000000     0          
O        O      0.182800000000     0.373100000000     0.298100000000     0          
O        O      0.158900000000     0.452100000000     0.250000000000     0          
O        O      0.451900000000     0.376900000000     0.432800000000     0          
O        O      0.375000000000     0.375000000000     0.375000000000     0          
O        O      0.373100000000     0.201900000000     0.182800000000     0          
O        O      0.375000000000     0.125000000000     0.125000000000     0          
O        O      0.048100000000     0.123100000000     0.432800000000     0          
O        O      0.125000000000     0.125000000000     0.375000000000     0          
O        O      0.126900000000     0.298100000000     0.182800000000     0          
O        O      0.125000000000     0.375000000000     0.125000000000     0          
O        O      0.451900000000     0.123100000000     0.067200000000     0          
O        O      0.126900000000     0.201900000000     0.317200000000     0          
O        O      0.048100000000     0.376900000000     0.067200000000     0          
O        O      0.373100000000     0.298100000000     0.317200000000     0          
O        O      0.432800000000     0.451900000000     0.376900000000     0          
O        O      0.298100000000     0.182800000000     0.126900000000     0          
O        O      0.067200000000     0.048100000000     0.376900000000     0          
O        O      0.201900000000     0.317200000000     0.126900000000     0          
O        O      0.432800000000     0.048100000000     0.123100000000     0          
O        O      0.201900000000     0.182800000000     0.373100000000     0          
O        O      0.067200000000     0.451900000000     0.123100000000     0          
O        O      0.298100000000     0.317200000000     0.373100000000     0          
O        O      0.376900000000     0.432800000000     0.451900000000     0          
O        O      0.376900000000     0.067200000000     0.048100000000     0          
O        O      0.182800000000     0.126900000000     0.298100000000     0          
O        O      0.123100000000     0.432800000000     0.048100000000     0          
O        O      0.317200000000     0.373100000000     0.298100000000     0          
O        O      0.123100000000     0.067200000000     0.451900000000     0          
O        O      0.182800000000     0.373100000000     0.201900000000     0          
O        O      0.317200000000     0.126900000000     0.201900000000     0          
O        O      0.000000000000     0.171950000000     0.500000000000     0          
O        O      0.048100000000     0.123100000000     0.567200000000     0          
O        O      0.000000000000     0.202100000000     0.591100000000     0          
O        O      0.125000000000     0.125000000000     0.625000000000     0          
O        O      0.078050000000     0.250000000000     0.750000000000     0          
O        O      0.126900000000     0.298100000000     0.817200000000     0          
O        O      0.047900000000     0.250000000000     0.841100000000     0          
O        O      0.125000000000     0.375000000000     0.875000000000     0          
O        O      0.000000000000     0.328050000000     0.500000000000     0          
O        O      0.451900000000     0.376900000000     0.567200000000     0          
O        O      0.000000000000     0.297900000000     0.591100000000     0          
O        O      0.375000000000     0.375000000000     0.625000000000     0          
O        O      0.421950000000     0.250000000000     0.750000000000     0          
O        O      0.373100000000     0.201900000000     0.817200000000     0          
O        O      0.452100000000     0.250000000000     0.841100000000     0          
O        O      0.375000000000     0.125000000000     0.875000000000     0          
O        O      0.048100000000     0.376900000000     0.932800000000     0          
O        O      0.000000000000     0.297900000000     0.908900000000     0          
O        O      0.373100000000     0.298100000000     0.682800000000     0          
O        O      0.452100000000     0.250000000000     0.658900000000     0          
O        O      0.451900000000     0.123100000000     0.932800000000     0          
O        O      0.000000000000     0.202100000000     0.908900000000     0          
O        O      0.126900000000     0.201900000000     0.682800000000     0          
O        O      0.047900000000     0.250000000000     0.658900000000     0          
O        O      0.000000000000     0.000000000000     0.671950000000     0          
O        O      0.067200000000     0.048100000000     0.623100000000     0          
O        O      0.091100000000     0.000000000000     0.702100000000     0          
O        O      0.250000000000     0.250000000000     0.921950000000     0          
O        O      0.201900000000     0.317200000000     0.873100000000     0          
O        O      0.250000000000     0.341100000000     0.952100000000     0          
O        O      0.432800000000     0.451900000000     0.623100000000     0          
O        O      0.408900000000     0.000000000000     0.702100000000     0          
O        O      0.298100000000     0.182800000000     0.873100000000     0          
O        O      0.250000000000     0.158900000000     0.952100000000     0          
O        O      0.000000000000     0.000000000000     0.828050000000     0          
O        O      0.067200000000     0.451900000000     0.876900000000     0          
O        O      0.091100000000     0.000000000000     0.797900000000     0          
O        O      0.250000000000     0.250000000000     0.578050000000     0          
O        O      0.298100000000     0.317200000000     0.626900000000     0          
O        O      0.250000000000     0.341100000000     0.547900000000     0          
O        O      0.432800000000     0.048100000000     0.876900000000     0          
O        O      0.408900000000     0.000000000000     0.797900000000     0          
O        O      0.201900000000     0.182800000000     0.626900000000     0          
O        O      0.250000000000     0.158900000000     0.547900000000     0          
O        O      0.171950000000     0.000000000000     0.500000000000     0          
O        O      0.123100000000     0.067200000000     0.548100000000     0          
O        O      0.202100000000     0.091100000000     0.500000000000     0          
O        O      0.123100000000     0.432800000000     0.951900000000     0          
O        O      0.202100000000     0.408900000000     0.500000000000     0          
O        O      0.250000000000     0.421950000000     0.750000000000     0          
O        O      0.317200000000     0.373100000000     0.701900000000     0          
O        O      0.341100000000     0.452100000000     0.750000000000     0          
O        O      0.328050000000     0.000000000000     0.500000000000     0          
O        O      0.376900000000     0.067200000000     0.951900000000     0          
O        O      0.297900000000     0.091100000000     0.500000000000     0          
O        O      0.250000000000     0.078050000000     0.750000000000     0          
O        O      0.182800000000     0.126900000000     0.701900000000     0          
O        O      0.158900000000     0.047900000000     0.750000000000     0          
O        O      0.376900000000     0.432800000000     0.548100000000     0          
O        O      0.297900000000     0.408900000000     0.500000000000     0          
O        O      0.317200000000     0.126900000000     0.798100000000     0          
O        O      0.341100000000     0.047900000000     0.750000000000     0          
O        O      0.182800000000     0.373100000000     0.798100000000     0          
O        O      0.158900000000     0.452100000000     0.750000000000     0          
O        O      0.451900000000     0.376900000000     0.932800000000     0          
O        O      0.375000000000     0.375000000000     0.875000000000     0          
O        O      0.373100000000     0.201900000000     0.682800000000     0          
O        O      0.375000000000     0.125000000000     0.625000000000     0          
O        O      0.048100000000     0.123100000000     0.932800000000     0          
O        O      0.125000000000     0.125000000000     0.875000000000     0          
O        O      0.126900000000     0.298100000000     0.682800000000     0          
O        O      0.125000000000     0.375000000000     0.625000000000     0          
O        O      0.451900000000     0.123100000000     0.567200000000     0          
O        O      0.126900000000     0.201900000000     0.817200000000     0          
O        O      0.048100000000     0.376900000000     0.567200000000     0          
O        O      0.373100000000     0.298100000000     0.817200000000     0          
O        O      0.432800000000     0.451900000000     0.876900000000     0          
O        O      0.298100000000     0.182800000000     0.626900000000     0          
O        O      0.067200000000     0.048100000000     0.876900000000     0          
O        O      0.201900000000     0.317200000000     0.626900000000     0          
O        O      0.432800000000     0.048100000000     0.623100000000     0          
O        O      0.201900000000     0.182800000000     0.873100000000     0          
O        O      0.067200000000     0.451900000000     0.623100000000     0          
O        O      0.298100000000     0.317200000000     0.873100000000     0          
O        O      0.376900000000     0.432800000000     0.951900000000     0          
O        O      0.376900000000     0.067200000000     0.548100000000     0          
O        O      0.182800000000     0.126900000000     0.798100000000     0          
O        O      0.123100000000     0.432800000000     0.548100000000     0          
O        O      0.317200000000     0.373100000000     0.798100000000     0          
O        O      0.123100000000     0.067200000000     0.951900000000     0          
O        O      0.182800000000     0.373100000000     0.701900000000     0          
O        O      0.317200000000     0.126900000000     0.701900000000     0          
O        O      0.000000000000     0.671950000000     0.000000000000     0          
O        O      0.048100000000     0.623100000000     0.067200000000     0          
O        O      0.000000000000     0.702100000000     0.091100000000     0          
O        O      0.125000000000     0.625000000000     0.125000000000     0          
O        O      0.078050000000     0.750000000000     0.250000000000     0          
O        O      0.126900000000     0.798100000000     0.317200000000     0          
O        O      0.047900000000     0.750000000000     0.341100000000     0          
O        O      0.125000000000     0.875000000000     0.375000000000     0          
O        O      0.000000000000     0.828050000000     0.000000000000     0          
O        O      0.451900000000     0.876900000000     0.067200000000     0          
O        O      0.000000000000     0.797900000000     0.091100000000     0          
O        O      0.375000000000     0.875000000000     0.125000000000     0          
O        O      0.421950000000     0.750000000000     0.250000000000     0          
O        O      0.373100000000     0.701900000000     0.317200000000     0          
O        O      0.452100000000     0.750000000000     0.341100000000     0          
O        O      0.375000000000     0.625000000000     0.375000000000     0          
O        O      0.048100000000     0.876900000000     0.432800000000     0          
O        O      0.000000000000     0.797900000000     0.408900000000     0          
O        O      0.373100000000     0.798100000000     0.182800000000     0          
O        O      0.452100000000     0.750000000000     0.158900000000     0          
O        O      0.451900000000     0.623100000000     0.432800000000     0          
O        O      0.000000000000     0.702100000000     0.408900000000     0          
O        O      0.126900000000     0.701900000000     0.182800000000     0          
O        O      0.047900000000     0.750000000000     0.158900000000     0          
O        O      0.000000000000     0.500000000000     0.171950000000     0          
O        O      0.067200000000     0.548100000000     0.123100000000     0          
O        O      0.091100000000     0.500000000000     0.202100000000     0          
O        O      0.250000000000     0.750000000000     0.421950000000     0          
O        O      0.201900000000     0.817200000000     0.373100000000     0          
O        O      0.250000000000     0.841100000000     0.452100000000     0          
O        O      0.432800000000     0.951900000000     0.123100000000     0          
O        O      0.408900000000     0.500000000000     0.202100000000     0          
O        O      0.298100000000     0.682800000000     0.373100000000     0          
O        O      0.250000000000     0.658900000000     0.452100000000     0          
O        O      0.000000000000     0.500000000000     0.328050000000     0          
O        O      0.067200000000     0.951900000000     0.376900000000     0          
O        O      0.091100000000     0.500000000000     0.297900000000     0          
O        O      0.250000000000     0.750000000000     0.078050000000     0          
O        O      0.298100000000     0.817200000000     0.126900000000     0          
O        O      0.250000000000     0.841100000000     0.047900000000     0          
O        O      0.432800000000     0.548100000000     0.376900000000     0          
O        O      0.408900000000     0.500000000000     0.297900000000     0          
O        O      0.201900000000     0.682800000000     0.126900000000     0          
O        O      0.250000000000     0.658900000000     0.047900000000     0          
O        O      0.171950000000     0.500000000000     0.000000000000     0          
O        O      0.123100000000     0.567200000000     0.048100000000     0          
O        O      0.202100000000     0.591100000000     0.000000000000     0          
O        O      0.123100000000     0.932800000000     0.451900000000     0          
O        O      0.202100000000     0.908900000000     0.000000000000     0          
O        O      0.250000000000     0.921950000000     0.250000000000     0          
O        O      0.317200000000     0.873100000000     0.201900000000     0          
O        O      0.341100000000     0.952100000000     0.250000000000     0          
O        O      0.328050000000     0.500000000000     0.000000000000     0          
O        O      0.376900000000     0.567200000000     0.451900000000     0          
O        O      0.297900000000     0.591100000000     0.000000000000     0          
O        O      0.250000000000     0.578050000000     0.250000000000     0          
O        O      0.182800000000     0.626900000000     0.201900000000     0          
O        O      0.158900000000     0.547900000000     0.250000000000     0          
O        O      0.376900000000     0.932800000000     0.048100000000     0          
O        O      0.297900000000     0.908900000000     0.000000000000     0          
O        O      0.317200000000     0.626900000000     0.298100000000     0          
O        O      0.341100000000     0.547900000000     0.250000000000     0          
O        O      0.182800000000     0.873100000000     0.298100000000     0          
O        O      0.158900000000     0.952100000000     0.250000000000     0          
O        O      0.451900000000     0.876900000000     0.432800000000     0          
O        O      0.375000000000     0.875000000000     0.375000000000     0          
O        O      0.373100000000     0.701900000000     0.182800000000     0          
O        O      0.375000000000     0.625000000000     0.125000000000     0          
O        O      0.048100000000     0.623100000000     0.432800000000     0          
O        O      0.125000000000     0.625000000000     0.375000000000     0          
O        O      0.126900000000     0.798100000000     0.182800000000     0          
O        O      0.125000000000     0.875000000000     0.125000000000     0          
O        O      0.451900000000     0.623100000000     0.067200000000     0          
O        O      0.126900000000     0.701900000000     0.317200000000     0          
O        O      0.048100000000     0.876900000000     0.067200000000     0          
O        O      0.373100000000     0.798100000000     0.317200000000     0          
O        O      0.432800000000     0.951900000000     0.376900000000     0          
O        O      0.298100000000     0.682800000000     0.126900000000     0          
O        O      0.067200000000     0.548100000000     0.376900000000     0          
O        O      0.201900000000     0.817200000000     0.126900000000     0          
O        O      0.432800000000     0.548100000000     0.123100000000     0          
O        O      0.201900000000     0.682800000000     0.373100000000     0          
O        O      0.067200000000     0.951900000000     0.123100000000     0          
O        O      0.298100000000     0.817200000000     0.373100000000     0          
O        O      0.376900000000     0.932800000000     0.451900000000     0          
O        O      0.376900000000     0.567200000000     0.048100000000     0          
O        O      0.182800000000     0.626900000000     0.298100000000     0          
O        O      0.123100000000     0.932800000000     0.048100000000     0          
O        O      0.317200000000     0.873100000000     0.298100000000     0          
O        O      0.123100000000     0.567200000000     0.451900000000     0          
O        O      0.182800000000     0.873100000000     0.201900000000     0          
O        O      0.317200000000     0.626900000000     0.201900000000     0          
O        O      0.000000000000     0.671950000000     0.500000000000     0          
O        O      0.048100000000     0.623100000000     0.567200000000     0          
O        O      0.000000000000     0.702100000000     0.591100000000     0          
O        O      0.125000000000     0.625000000000     0.625000000000     0          
O        O      0.078050000000     0.750000000000     0.750000000000     0          
O        O      0.126900000000     0.798100000000     0.817200000000     0          
O        O      0.047900000000     0.750000000000     0.841100000000     0          
O        O      0.125000000000     0.875000000000     0.875000000000     0          
O        O      0.000000000000     0.828050000000     0.500000000000     0          
O        O      0.451900000000     0.876900000000     0.567200000000     0          
O        O      0.000000000000     0.797900000000     0.591100000000     0          
O        O      0.375000000000     0.875000000000     0.625000000000     0          
O        O      0.421950000000     0.750000000000     0.750000000000     0          
O        O      0.373100000000     0.701900000000     0.817200000000     0          
O        O      0.452100000000     0.750000000000     0.841100000000     0          
O        O      0.375000000000     0.625000000000     0.875000000000     0          
O        O      0.048100000000     0.876900000000     0.932800000000     0          
O        O      0.000000000000     0.797900000000     0.908900000000     0          
O        O      0.373100000000     0.798100000000     0.682800000000     0          
O        O      0.452100000000     0.750000000000     0.658900000000     0          
O        O      0.451900000000     0.623100000000     0.932800000000     0          
O        O      0.000000000000     0.702100000000     0.908900000000     0          
O        O      0.126900000000     0.701900000000     0.682800000000     0          
O        O      0.047900000000     0.750000000000     0.658900000000     0          
O        O      0.000000000000     0.500000000000     0.671950000000     0          
O        O      0.067200000000     0.548100000000     0.623100000000     0          
O        O      0.091100000000     0.500000000000     0.702100000000     0          
O        O      0.250000000000     0.750000000000     0.921950000000     0          
O        O      0.201900000000     0.817200000000     0.873100000000     0          
O        O      0.250000000000     0.841100000000     0.952100000000     0          
O        O      0.432800000000     0.951900000000     0.623100000000     0          
O        O      0.408900000000     0.500000000000     0.702100000000     0          
O        O      0.298100000000     0.682800000000     0.873100000000     0          
O        O      0.250000000000     0.658900000000     0.952100000000     0          
O        O      0.000000000000     0.500000000000     0.828050000000     0          
O        O      0.067200000000     0.951900000000     0.876900000000     0          
O        O      0.091100000000     0.500000000000     0.797900000000     0          
O        O      0.250000000000     0.750000000000     0.578050000000     0          
O        O      0.298100000000     0.817200000000     0.626900000000     0          
O        O      0.250000000000     0.841100000000     0.547900000000     0          
O        O      0.432800000000     0.548100000000     0.876900000000     0          
O        O      0.408900000000     0.500000000000     0.797900000000     0          
O        O      0.201900000000     0.682800000000     0.626900000000     0          
O        O      0.250000000000     0.658900000000     0.547900000000     0          
O        O      0.171950000000     0.500000000000     0.500000000000     0          
O        O      0.123100000000     0.567200000000     0.548100000000     0          
O        O      0.202100000000     0.591100000000     0.500000000000     0          
O        O      0.123100000000     0.932800000000     0.951900000000     0          
O        O      0.202100000000     0.908900000000     0.500000000000     0          
O        O      0.250000000000     0.921950000000     0.750000000000     0          
O        O      0.317200000000     0.873100000000     0.701900000000     0          
O        O      0.341100000000     0.952100000000     0.750000000000     0          
O        O      0.328050000000     0.500000000000     0.500000000000     0          
O        O      0.376900000000     0.567200000000     0.951900000000     0          
O        O      0.297900000000     0.591100000000     0.500000000000     0          
O        O      0.250000000000     0.578050000000     0.750000000000     0          
O        O      0.182800000000     0.626900000000     0.701900000000     0          
O        O      0.158900000000     0.547900000000     0.750000000000     0          
O        O      0.376900000000     0.932800000000     0.548100000000     0          
O        O      0.297900000000     0.908900000000     0.500000000000     0          
O        O      0.317200000000     0.626900000000     0.798100000000     0          
O        O      0.341100000000     0.547900000000     0.750000000000     0          
O        O      0.182800000000     0.873100000000     0.798100000000     0          
O        O      0.158900000000     0.952100000000     0.750000000000     0          
O        O      0.451900000000     0.876900000000     0.932800000000     0          
O        O      0.375000000000     0.875000000000     0.875000000000     0          
O        O      0.373100000000     0.701900000000     0.682800000000     0          
O        O      0.375000000000     0.625000000000     0.625000000000     0          
O        O      0.048100000000     0.623100000000     0.932800000000     0          
O        O      0.125000000000     0.625000000000     0.875000000000     0          
O        O      0.126900000000     0.798100000000     0.682800000000     0          
O        O      0.125000000000     0.875000000000     0.625000000000     0          
O        O      0.451900000000     0.623100000000     0.567200000000     0          
O        O      0.126900000000     0.701900000000     0.817200000000     0          
O        O      0.048100000000     0.876900000000     0.567200000000     0          
O        O      0.373100000000     0.798100000000     0.817200000000     0          
O        O      0.432800000000     0.951900000000     0.876900000000     0          
O        O      0.298100000000     0.682800000000     0.626900000000     0          
O        O      0.067200000000     0.548100000000     0.876900000000     0          
O        O      0.201900000000     0.817200000000     0.626900000000     0          
O        O      0.432800000000     0.548100000000     0.623100000000     0          
O        O      0.201900000000     0.682800000000     0.873100000000     0          
O        O      0.067200000000     0.951900000000     0.623100000000     0          
O        O      0.298100000000     0.817200000000     0.873100000000     0          
O        O      0.376900000000     0.932800000000     0.951900000000     0          
O        O      0.376900000000     0.567200000000     0.548100000000     0          
O        O      0.182800000000     0.626900000000     0.798100000000     0          
O        O      0.123100000000     0.932800000000     0.548100000000     0          
O        O      0.317200000000     0.873100000000     0.798100000000     0          
O        O      0.123100000000     0.567200000000     0.951900000000     0          
O        O      0.182800000000     0.873100000000     0.701900000000     0          
O        O      0.317200000000     0.626900000000     0.701900000000     0          
O        O      0.500000000000     0.171950000000     0.000000000000     0          
O        O      0.548100000000     0.123100000000     0.067200000000     0          
O        O      0.500000000000     0.202100000000     0.091100000000     0          
O        O      0.625000000000     0.125000000000     0.125000000000     0          
O        O      0.578050000000     0.250000000000     0.250000000000     0          
O        O      0.626900000000     0.298100000000     0.317200000000     0          
O        O      0.547900000000     0.250000000000     0.341100000000     0          
O        O      0.625000000000     0.375000000000     0.375000000000     0          
O        O      0.500000000000     0.328050000000     0.000000000000     0          
O        O      0.951900000000     0.376900000000     0.067200000000     0          
O        O      0.500000000000     0.297900000000     0.091100000000     0          
O        O      0.875000000000     0.375000000000     0.125000000000     0          
O        O      0.921950000000     0.250000000000     0.250000000000     0          
O        O      0.873100000000     0.201900000000     0.317200000000     0          
O        O      0.952100000000     0.250000000000     0.341100000000     0          
O        O      0.875000000000     0.125000000000     0.375000000000     0          
O        O      0.548100000000     0.376900000000     0.432800000000     0          
O        O      0.500000000000     0.297900000000     0.408900000000     0          
O        O      0.873100000000     0.298100000000     0.182800000000     0          
O        O      0.952100000000     0.250000000000     0.158900000000     0          
O        O      0.951900000000     0.123100000000     0.432800000000     0          
O        O      0.500000000000     0.202100000000     0.408900000000     0          
O        O      0.626900000000     0.201900000000     0.182800000000     0          
O        O      0.547900000000     0.250000000000     0.158900000000     0          
O        O      0.500000000000     0.000000000000     0.171950000000     0          
O        O      0.567200000000     0.048100000000     0.123100000000     0          
O        O      0.591100000000     0.000000000000     0.202100000000     0          
O        O      0.750000000000     0.250000000000     0.421950000000     0          
O        O      0.701900000000     0.317200000000     0.373100000000     0          
O        O      0.750000000000     0.341100000000     0.452100000000     0          
O        O      0.932800000000     0.451900000000     0.123100000000     0          
O        O      0.908900000000     0.000000000000     0.202100000000     0          
O        O      0.798100000000     0.182800000000     0.373100000000     0          
O        O      0.750000000000     0.158900000000     0.452100000000     0          
O        O      0.500000000000     0.000000000000     0.328050000000     0          
O        O      0.567200000000     0.451900000000     0.376900000000     0          
O        O      0.591100000000     0.000000000000     0.297900000000     0          
O        O      0.750000000000     0.250000000000     0.078050000000     0          
O        O      0.798100000000     0.317200000000     0.126900000000     0          
O        O      0.750000000000     0.341100000000     0.047900000000     0          
O        O      0.932800000000     0.048100000000     0.376900000000     0          
O        O      0.908900000000     0.000000000000     0.297900000000     0          
O        O      0.701900000000     0.182800000000     0.126900000000     0          
O        O      0.750000000000     0.158900000000     0.047900000000     0          
O        O      0.671950000000     0.000000000000     0.000000000000     0          
O        O      0.623100000000     0.067200000000     0.048100000000     0          
O        O      0.702100000000     0.091100000000     0.000000000000     0          
O        O      0.623100000000     0.432800000000     0.451900000000     0          
O        O      0.702100000000     0.408900000000     0.000000000000     0          
O        O      0.750000000000     0.421950000000     0.250000000000     0          
O        O      0.817200000000     0.373100000000     0.201900000000     0          
O        O      0.841100000000     0.452100000000     0.250000000000     0          
O        O      0.828050000000     0.000000000000     0.000000000000     0          
O        O      0.876900000000     0.067200000000     0.451900000000     0          
O        O      0.797900000000     0.091100000000     0.000000000000     0          
O        O      0.750000000000     0.078050000000     0.250000000000     0          
O        O      0.682800000000     0.126900000000     0.201900000000     0          
O        O      0.658900000000     0.047900000000     0.250000000000     0          
O        O      0.876900000000     0.432800000000     0.048100000000     0          
O        O      0.797900000000     0.408900000000     0.000000000000     0          
O        O      0.817200000000     0.126900000000     0.298100000000     0          
O        O      0.841100000000     0.047900000000     0.250000000000     0          
O        O      0.682800000000     0.373100000000     0.298100000000     0          
O        O      0.658900000000     0.452100000000     0.250000000000     0          
O        O      0.951900000000     0.376900000000     0.432800000000     0          
O        O      0.875000000000     0.375000000000     0.375000000000     0          
O        O      0.873100000000     0.201900000000     0.182800000000     0          
O        O      0.875000000000     0.125000000000     0.125000000000     0          
O        O      0.548100000000     0.123100000000     0.432800000000     0          
O        O      0.625000000000     0.125000000000     0.375000000000     0          
O        O      0.626900000000     0.298100000000     0.182800000000     0          
O        O      0.625000000000     0.375000000000     0.125000000000     0          
O        O      0.951900000000     0.123100000000     0.067200000000     0          
O        O      0.626900000000     0.201900000000     0.317200000000     0          
O        O      0.548100000000     0.376900000000     0.067200000000     0          
O        O      0.873100000000     0.298100000000     0.317200000000     0          
O        O      0.932800000000     0.451900000000     0.376900000000     0          
O        O      0.798100000000     0.182800000000     0.126900000000     0          
O        O      0.567200000000     0.048100000000     0.376900000000     0          
O        O      0.701900000000     0.317200000000     0.126900000000     0          
O        O      0.932800000000     0.048100000000     0.123100000000     0          
O        O      0.701900000000     0.182800000000     0.373100000000     0          
O        O      0.567200000000     0.451900000000     0.123100000000     0          
O        O      0.798100000000     0.317200000000     0.373100000000     0          
O        O      0.876900000000     0.432800000000     0.451900000000     0          
O        O      0.876900000000     0.067200000000     0.048100000000     0          
O        O      0.682800000000     0.126900000000     0.298100000000     0          
O        O      0.623100000000     0.432800000000     0.048100000000     0          
O        O      0.817200000000     0.373100000000     0.298100000000     0          
O        O      0.623100000000     0.067200000000     0.451900000000     0          
O        O      0.682800000000     0.373100000000     0.201900000000     0          
O        O      0.817200000000     0.126900000000     0.201900000000     0          
O        O      0.500000000000     0.171950000000     0.500000000000     0          
O        O      0.548100000000     0.123100000000     0.567200000000     0          
O        O      0.500000000000     0.202100000000     0.591100000000     0          
O        O      0.625000000000     0.125000000000     0.625000000000     0          
O        O      0.578050000000     0.250000000000     0.750000000000     0          
O        O      0.626900000000     0.298100000000     0.817200000000     0          
O        O      0.547900000000     0.250000000000     0.841100000000     0          
O        O      0.625000000000     0.375000000000     0.875000000000     0          
O        O      0.500000000000     0.328050000000     0.500000000000     0          
O        O      0.951900000000     0.376900000000     0.567200000000     0          
O        O      0.500000000000     0.297900000000     0.591100000000     0          
O        O      0.875000000000     0.375000000000     0.625000000000     0          
O        O      0.921950000000     0.250000000000     0.750000000000     0          
O        O      0.873100000000     0.201900000000     0.817200000000     0          
O        O      0.952100000000     0.250000000000     0.841100000000     0          
O        O      0.875000000000     0.125000000000     0.875000000000     0          
O        O      0.548100000000     0.376900000000     0.932800000000     0          
O        O      0.500000000000     0.297900000000     0.908900000000     0          
O        O      0.873100000000     0.298100000000     0.682800000000     0          
O        O      0.952100000000     0.250000000000     0.658900000000     0          
O        O      0.951900000000     0.123100000000     0.932800000000     0          
O        O      0.500000000000     0.202100000000     0.908900000000     0          
O        O      0.626900000000     0.201900000000     0.682800000000     0          
O        O      0.547900000000     0.250000000000     0.658900000000     0          
O        O      0.500000000000     0.000000000000     0.671950000000     0          
O        O      0.567200000000     0.048100000000     0.623100000000     0          
O        O      0.591100000000     0.000000000000     0.702100000000     0          
O        O      0.750000000000     0.250000000000     0.921950000000     0          
O        O      0.701900000000     0.317200000000     0.873100000000     0          
O        O      0.750000000000     0.341100000000     0.952100000000     0          
O        O      0.932800000000     0.451900000000     0.623100000000     0          
O        O      0.908900000000     0.000000000000     0.702100000000     0          
O        O      0.798100000000     0.182800000000     0.873100000000     0          
O        O      0.750000000000     0.158900000000     0.952100000000     0          
O        O      0.500000000000     0.000000000000     0.828050000000     0          
O        O      0.567200000000     0.451900000000     0.876900000000     0          
O        O      0.591100000000     0.000000000000     0.797900000000     0          
O        O      0.750000000000     0.250000000000     0.578050000000     0          
O        O      0.798100000000     0.317200000000     0.626900000000     0          
O        O      0.750000000000     0.341100000000     0.547900000000     0          
O        O      0.932800000000     0.048100000000     0.876900000000     0          
O        O      0.908900000000     0.000000000000     0.797900000000     0          
O        O      0.701900000000     0.182800000000     0.626900000000     0          
O        O      0.750000000000     0.158900000000     0.547900000000     0          
O        O      0.671950000000     0.000000000000     0.500000000000     0          
O        O      0.623100000000     0.067200000000     0.548100000000     0          
O        O      0.702100000000     0.091100000000     0.500000000000     0          
O        O      0.623100000000     0.432800000000     0.951900000000     0          
O        O      0.702100000000     0.408900000000     0.500000000000     0          
O        O      0.750000000000     0.421950000000     0.750000000000     0          
O        O      0.817200000000     0.373100000000     0.701900000000     0          
O        O      0.841100000000     0.452100000000     0.750000000000     0          
O        O      0.828050000000     0.000000000000     0.500000000000     0          
O        O      0.876900000000     0.067200000000     0.951900000000     0          
O        O      0.797900000000     0.091100000000     0.500000000000     0          
O        O      0.750000000000     0.078050000000     0.750000000000     0          
O        O      0.682800000000     0.126900000000     0.701900000000     0          
O        O      0.658900000000     0.047900000000     0.750000000000     0          
O        O      0.876900000000     0.432800000000     0.548100000000     0          
O        O      0.797900000000     0.408900000000     0.500000000000     0          
O        O      0.817200000000     0.126900000000     0.798100000000     0          
O        O      0.841100000000     0.047900000000     0.750000000000     0          
O        O      0.682800000000     0.373100000000     0.798100000000     0          
O        O      0.658900000000     0.452100000000     0.750000000000     0          
O        O      0.951900000000     0.376900000000     0.932800000000     0          
O        O      0.875000000000     0.375000000000     0.875000000000     0          
O        O      0.873100000000     0.201900000000     0.682800000000     0          
O        O      0.875000000000     0.125000000000     0.625000000000     0          
O        O      0.548100000000     0.123100000000     0.932800000000     0          
O        O      0.625000000000     0.125000000000     0.875000000000     0          
O        O      0.626900000000     0.298100000000     0.682800000000     0          
O        O      0.625000000000     0.375000000000     0.625000000000     0          
O        O      0.951900000000     0.123100000000     0.567200000000     0          
O        O      0.626900000000     0.201900000000     0.817200000000     0          
O        O      0.548100000000     0.376900000000     0.567200000000     0          
O        O      0.873100000000     0.298100000000     0.817200000000     0          
O        O      0.932800000000     0.451900000000     0.876900000000     0          
O        O      0.798100000000     0.182800000000     0.626900000000     0          
O        O      0.567200000000     0.048100000000     0.876900000000     0          
O        O      0.701900000000     0.317200000000     0.626900000000     0          
O        O      0.932800000000     0.048100000000     0.623100000000     0          
O        O      0.701900000000     0.182800000000     0.873100000000     0          
O        O      0.567200000000     0.451900000000     0.623100000000     0          
O        O      0.798100000000     0.317200000000     0.873100000000     0          
O        O      0.876900000000     0.432800000000     0.951900000000     0          
O        O      0.876900000000     0.067200000000     0.548100000000     0          
O        O      0.682800000000     0.126900000000     0.798100000000     0          
O        O      0.623100000000     0.432800000000     0.548100000000     0          
O        O      0.817200000000     0.373100000000     0.798100000000     0          
O        O      0.623100000000     0.067200000000     0.951900000000     0          
O        O      0.682800000000     0.373100000000     0.701900000000     0          
O        O      0.817200000000     0.126900000000     0.701900000000     0          
O        O      0.500000000000     0.671950000000     0.000000000000     0          
O        O      0.548100000000     0.623100000000     0.067200000000     0          
O        O      0.500000000000     0.702100000000     0.091100000000     0          
O        O      0.625000000000     0.625000000000     0.125000000000     0          
O        O      0.578050000000     0.750000000000     0.250000000000     0          
O        O      0.626900000000     0.798100000000     0.317200000000     0          
O        O      0.547900000000     0.750000000000     0.341100000000     0          
O        O      0.625000000000     0.875000000000     0.375000000000     0          
O        O      0.500000000000     0.828050000000     0.000000000000     0          
O        O      0.951900000000     0.876900000000     0.067200000000     0          
O        O      0.500000000000     0.797900000000     0.091100000000     0          
O        O      0.875000000000     0.875000000000     0.125000000000     0          
O        O      0.921950000000     0.750000000000     0.250000000000     0          
O        O      0.873100000000     0.701900000000     0.317200000000     0          
O        O      0.952100000000     0.750000000000     0.341100000000     0          
O        O      0.875000000000     0.625000000000     0.375000000000     0          
O        O      0.548100000000     0.876900000000     0.432800000000     0          
O        O      0.500000000000     0.797900000000     0.408900000000     0          
O        O      0.873100000000     0.798100000000     0.182800000000     0          
O        O      0.952100000000     0.750000000000     0.158900000000     0          
O        O      0.951900000000     0.623100000000     0.432800000000     0          
O        O      0.500000000000     0.702100000000     0.408900000000     0          
O        O      0.626900000000     0.701900000000     0.182800000000     0          
O        O      0.547900000000     0.750000000000     0.158900000000     0          
O        O      0.500000000000     0.500000000000     0.171950000000     0          
O        O      0.567200000000     0.548100000000     0.123100000000     0          
O        O      0.591100000000     0.500000000000     0.202100000000     0          
O        O      0.750000000000     0.750000000000     0.421950000000     0          
O        O      0.701900000000     0.817200000000     0.373100000000     0          
O        O      0.750000000000     0.841100000000     0.452100000000     0          
O        O      0.932800000000     0.951900000000     0.123100000000     0          
O        O      0.908900000000     0.500000000000     0.202100000000     0          
O        O      0.798100000000     0.682800000000     0.373100000000     0          
O        O      0.750000000000     0.658900000000     0.452100000000     0          
O        O      0.500000000000     0.500000000000     0.328050000000     0          
O        O      0.567200000000     0.951900000000     0.376900000000     0          
O        O      0.591100000000     0.500000000000     0.297900000000     0          
O        O      0.750000000000     0.750000000000     0.078050000000     0          
O        O      0.798100000000     0.817200000000     0.126900000000     0          
O        O      0.750000000000     0.841100000000     0.047900000000     0          
O        O      0.932800000000     0.548100000000     0.376900000000     0          
O        O      0.908900000000     0.500000000000     0.297900000000     0          
O        O      0.701900000000     0.682800000000     0.126900000000     0          
O        O      0.750000000000     0.658900000000     0.047900000000     0          
O        O      0.671950000000     0.500000000000     0.000000000000     0          
O        O      0.623100000000     0.567200000000     0.048100000000     0          
O        O      0.702100000000     0.591100000000     0.000000000000     0          
O        O      0.623100000000     0.932800000000     0.451900000000     0          
O        O      0.702100000000     0.908900000000     0.000000000000     0          
O        O      0.750000000000     0.921950000000     0.250000000000     0          
O        O      0.817200000000     0.873100000000     0.201900000000     0          
O        O      0.841100000000     0.952100000000     0.250000000000     0          
O        O      0.828050000000     0.500000000000     0.000000000000     0          
O        O      0.876900000000     0.567200000000     0.451900000000     0          
O        O      0.797900000000     0.591100000000     0.000000000000     0          
O        O      0.750000000000     0.578050000000     0.250000000000     0          
O        O      0.682800000000     0.626900000000     0.201900000000     0          
O        O      0.658900000000     0.547900000000     0.250000000000     0          
O        O      0.876900000000     0.932800000000     0.048100000000     0          
O        O      0.797900000000     0.908900000000     0.000000000000     0          
O        O      0.817200000000     0.626900000000     0.298100000000     0          
O        O      0.841100000000     0.547900000000     0.250000000000     0          
O        O      0.682800000000     0.873100000000     0.298100000000     0          
O        O      0.658900000000     0.952100000000     0.250000000000     0          
O        O      0.951900000000     0.876900000000     0.432800000000     0          
O        O      0.875000000000     0.875000000000     0.375000000000     0          
O        O      0.873100000000     0.701900000000     0.182800000000     0          
O        O      0.875000000000     0.625000000000     0.125000000000     0          
O        O      0.548100000000     0.623100000000     0.432800000000     0          
O        O      0.625000000000     0.625000000000     0.375000000000     0          
O        O      0.626900000000     0.798100000000     0.182800000000     0          
O        O      0.625000000000     0.875000000000     0.125000000000     0          
O        O      0.951900000000     0.623100000000     0.067200000000     0          
O        O      0.626900000000     0.701900000000     0.317200000000     0          
O        O      0.548100000000     0.876900000000     0.067200000000     0          
O        O      0.873100000000     0.798100000000     0.317200000000     0          
O        O      0.932800000000     0.951900000000     0.376900000000     0          
O        O      0.798100000000     0.682800000000     0.126900000000     0          
O        O      0.567200000000     0.548100000000     0.376900000000     0          
O        O      0.701900000000     0.817200000000     0.126900000000     0          
O        O      0.932800000000     0.548100000000     0.123100000000     0          
O        O      0.701900000000     0.682800000000     0.373100000000     0          
O        O      0.567200000000     0.951900000000     0.123100000000     0          
O        O      0.798100000000     0.817200000000     0.373100000000     0          
O        O      0.876900000000     0.932800000000     0.451900000000     0          
O        O      0.876900000000     0.567200000000     0.048100000000     0          
O        O      0.682800000000     0.626900000000     0.298100000000     0          
O        O      0.623100000000     0.932800000000     0.048100000000     0          
O        O      0.817200000000     0.873100000000     0.298100000000     0          
O        O      0.623100000000     0.567200000000     0.451900000000     0          
O        O      0.682800000000     0.873100000000     0.201900000000     0          
O        O      0.817200000000     0.626900000000     0.201900000000     0          
O        O      0.500000000000     0.671950000000     0.500000000000     0          
O        O      0.548100000000     0.623100000000     0.567200000000     0          
O        O      0.500000000000     0.702100000000     0.591100000000     0          
O        O      0.625000000000     0.625000000000     0.625000000000     0          
O        O      0.578050000000     0.750000000000     0.750000000000     0          
O        O      0.626900000000     0.798100000000     0.817200000000     0          
O        O      0.547900000000     0.750000000000     0.841100000000     0          
O        O      0.625000000000     0.875000000000     0.875000000000     0          
O        O      0.500000000000     0.828050000000     0.500000000000     0          
O        O      0.951900000000     0.876900000000     0.567200000000     0          
O        O      0.500000000000     0.797900000000     0.591100000000     0          
O        O      0.875000000000     0.875000000000     0.625000000000     0          
O        O      0.921950000000     0.750000000000     0.750000000000     0          
O        O      0.873100000000     0.701900000000     0.817200000000     0          
O        O      0.952100000000     0.750000000000     0.841100000000     0          
O        O      0.875000000000     0.625000000000     0.875000000000     0          
O        O      0.548100000000     0.876900000000     0.932800000000     0          
O        O      0.500000000000     0.797900000000     0.908900000000     0          
O        O      0.873100000000     0.798100000000     0.682800000000     0          
O        O      0.952100000000     0.750000000000     0.658900000000     0          
O        O      0.951900000000     0.623100000000     0.932800000000     0          
O        O      0.500000000000     0.702100000000     0.908900000000     0          
O        O      0.626900000000     0.701900000000     0.682800000000     0          
O        O      0.547900000000     0.750000000000     0.658900000000     0          
O        O      0.500000000000     0.500000000000     0.671950000000     0          
O        O      0.567200000000     0.548100000000     0.623100000000     0          
O        O      0.591100000000     0.500000000000     0.702100000000     0          
O        O      0.750000000000     0.750000000000     0.921950000000     0          
O        O      0.701900000000     0.817200000000     0.873100000000     0          
O        O      0.750000000000     0.841100000000     0.952100000000     0          
O        O      0.932800000000     0.951900000000     0.623100000000     0          
O        O      0.908900000000     0.500000000000     0.702100000000     0          
O        O      0.798100000000     0.682800000000     0.873100000000     0          
O        O      0.750000000000     0.658900000000     0.952100000000     0          
O        O      0.500000000000     0.500000000000     0.828050000000     0          
O        O      0.567200000000     0.951900000000     0.876900000000     0          
O        O      0.591100000000     0.500000000000     0.797900000000     0          
O        O      0.750000000000     0.750000000000     0.578050000000     0          
O        O      0.798100000000     0.817200000000     0.626900000000     0          
O        O      0.750000000000     0.841100000000     0.547900000000     0          
O        O      0.932800000000     0.548100000000     0.876900000000     0          
O        O      0.908900000000     0.500000000000     0.797900000000     0          
O        O      0.701900000000     0.682800000000     0.626900000000     0          
O        O      0.750000000000     0.658900000000     0.547900000000     0          
O        O      0.671950000000     0.500000000000     0.500000000000     0          
O        O      0.623100000000     0.567200000000     0.548100000000     0          
O        O      0.702100000000     0.591100000000     0.500000000000     0          
O        O      0.623100000000     0.932800000000     0.951900000000     0          
O        O      0.702100000000     0.908900000000     0.500000000000     0          
O        O      0.750000000000     0.921950000000     0.750000000000     0          
O        O      0.817200000000     0.873100000000     0.701900000000     0          
O        O      0.841100000000     0.952100000000     0.750000000000     0          
O        O      0.828050000000     0.500000000000     0.500000000000     0          
O        O      0.876900000000     0.567200000000     0.951900000000     0          
O        O      0.797900000000     0.591100000000     0.500000000000     0          
O        O      0.750000000000     0.578050000000     0.750000000000     0          
O        O      0.682800000000     0.626900000000     0.701900000000     0          
O        O      0.658900000000     0.547900000000     0.750000000000     0          
O        O      0.876900000000     0.932800000000     0.548100000000     0          
O        O      0.797900000000     0.908900000000     0.500000000000     0          
O        O      0.817200000000     0.626900000000     0.798100000000     0          
O        O      0.841100000000     0.547900000000     0.750000000000     0          
O        O      0.682800000000     0.873100000000     0.798100000000     0          
O        O      0.658900000000     0.952100000000     0.750000000000     0          
O        O      0.951900000000     0.876900000000     0.932800000000     0          
O        O      0.875000000000     0.875000000000     0.875000000000     0          
O        O      0.873100000000     0.701900000000     0.682800000000     0          
O        O      0.875000000000     0.625000000000     0.625000000000     0          
O        O      0.548100000000     0.623100000000     0.932800000000     0          
O        O      0.625000000000     0.625000000000     0.875000000000     0          
O        O      0.626900000000     0.798100000000     0.682800000000     0          
O        O      0.625000000000     0.875000000000     0.625000000000     0          
O        O      0.951900000000     0.623100000000     0.567200000000     0          
O        O      0.626900000000     0.701900000000     0.817200000000     0          
O        O      0.548100000000     0.876900000000     0.567200000000     0          
O        O      0.873100000000     0.798100000000     0.817200000000     0          
O        O      0.932800000000     0.951900000000     0.876900000000     0          
O        O      0.798100000000     0.682800000000     0.626900000000     0          
O        O      0.567200000000     0.548100000000     0.876900000000     0          
O        O      0.701900000000     0.817200000000     0.626900000000     0          
O        O      0.932800000000     0.548100000000     0.623100000000     0          
O        O      0.701900000000     0.682800000000     0.873100000000     0          
O        O      0.567200000000     0.951900000000     0.623100000000     0          
O        O      0.798100000000     0.817200000000     0.873100000000     0          
O        O      0.876900000000     0.932800000000     0.951900000000     0          
O        O      0.876900000000     0.567200000000     0.548100000000     0          
O        O      0.682800000000     0.626900000000     0.798100000000     0          
O        O      0.623100000000     0.932800000000     0.548100000000     0          
O        O      0.817200000000     0.873100000000     0.798100000000     0          
O        O      0.623100000000     0.567200000000     0.951900000000     0          
O        O      0.682800000000     0.873100000000     0.701900000000     0          
O        O      0.817200000000     0.626900000000     0.701900000000     0          


