data_zeolite

_audit_creation_method RASPA-1.0
_audit_creation_date 2021-6-10
_audit_author_name ''

_cell_length_a    43.99
_cell_length_b    43.99
_cell_length_c    42.318
_cell_angle_alpha 90
_cell_angle_beta  90
_cell_angle_gamma 120
_cell_volume      70919.2

_symmetry_cell_setting          hexagonal
_symmetry_space_group_name_Hall 'P 1'
_symmetry_space_group_name_H-M  'P 1'
_symmetry_Int_Tables_number     1

_symmetry_equiv_pos_as_xyz 'x,y,z'

loop_
_atom_site_label
_atom_site_type_symbol
_atom_site_fract_x
_atom_site_fract_y
_atom_site_fract_z
_atom_site_charge
O        O      0.064500000000     0.128950000000     0.370200000000     0          
O        O      0.053350000000     0.178850000000     0.349400000000     0          
O        O      0.000000000000     0.116200000000     0.361800000000     0          
O        O      0.038200000000     0.157100000000     0.408300000000     0          
O        O      0.324500000000     0.259500000000     0.131400000000     0          
O        O      0.338100000000     0.271850000000     0.192050000000     0          
O        O      0.383200000000     0.266400000000     0.154850000000     0          
O        O      0.052100000000     0.219400000000     0.427600000000     0          
O        O      0.000000000000     0.208400000000     0.389950000000     0          
O        O      0.044850000000     0.272450000000     0.408900000000     0          
O        O      0.043750000000     0.225800000000     0.250000000000     0          
O        O      0.049600000000     0.274800000000     0.289150000000     0          
O        O      0.000000000000     0.209250000000     0.297700000000     0          
O        O      0.399500000000     0.299050000000     0.068450000000     0          
O        O      0.373650000000     0.328250000000     0.031000000000     0          
O        O      0.000000000000     0.115500000000     0.000000000000     0          
O        O      0.067150000000     0.134300000000     0.000000000000     0          
T        Si     0.039000000000     0.145350000000     0.372450000000     0          
T        Si     0.355100000000     0.279600000000     0.157200000000     0          
T        Si     0.040400000000     0.235150000000     0.398750000000     0          
T        Si     0.039850000000     0.234450000000     0.286250000000     0          
T        Si     0.371750000000     0.312650000000     0.065800000000     0          
T        Si     0.039550000000     0.148250000000     0.000000000000     0          
O        O      0.435550000000     0.064500000000     0.370200000000     0          
O        O      0.374500000000     0.053350000000     0.349400000000     0          
O        O      0.383800000000     0.000000000000     0.361800000000     0          
O        O      0.381100000000     0.038200000000     0.408300000000     0          
O        O      0.065000000000     0.324500000000     0.131400000000     0          
O        O      0.066250000000     0.338100000000     0.192050000000     0          
O        O      0.116800000000     0.383200000000     0.154850000000     0          
O        O      0.332700000000     0.052100000000     0.427600000000     0          
O        O      0.291600000000     0.000000000000     0.389950000000     0          
O        O      0.272400000000     0.044850000000     0.408900000000     0          
O        O      0.317950000000     0.043750000000     0.250000000000     0          
O        O      0.274800000000     0.049600000000     0.289150000000     0          
O        O      0.290750000000     0.000000000000     0.297700000000     0          
O        O      0.100450000000     0.399500000000     0.068450000000     0          
O        O      0.045400000000     0.373650000000     0.031000000000     0          
O        O      0.384500000000     0.000000000000     0.000000000000     0          
O        O      0.432850000000     0.067150000000     0.000000000000     0          
T        Si     0.393650000000     0.039000000000     0.372450000000     0          
T        Si     0.075500000000     0.355100000000     0.157200000000     0          
T        Si     0.305250000000     0.040400000000     0.398750000000     0          
T        Si     0.305400000000     0.039850000000     0.286250000000     0          
T        Si     0.059100000000     0.371750000000     0.065800000000     0          
T        Si     0.391300000000     0.039550000000     0.000000000000     0          
O        O      0.371050000000     0.435550000000     0.370200000000     0          
O        O      0.321150000000     0.374500000000     0.349400000000     0          
O        O      0.383800000000     0.383800000000     0.361800000000     0          
O        O      0.342900000000     0.381100000000     0.408300000000     0          
O        O      0.240500000000     0.065000000000     0.131400000000     0          
O        O      0.228150000000     0.066250000000     0.192050000000     0          
O        O      0.233600000000     0.116800000000     0.154850000000     0          
O        O      0.280600000000     0.332700000000     0.427600000000     0          
O        O      0.291600000000     0.291600000000     0.389950000000     0          
O        O      0.227550000000     0.272400000000     0.408900000000     0          
O        O      0.274200000000     0.317950000000     0.250000000000     0          
O        O      0.225200000000     0.274800000000     0.289150000000     0          
O        O      0.290750000000     0.290750000000     0.297700000000     0          
O        O      0.200950000000     0.100450000000     0.068450000000     0          
O        O      0.171750000000     0.045400000000     0.031000000000     0          
O        O      0.384500000000     0.384500000000     0.000000000000     0          
O        O      0.365700000000     0.432850000000     0.000000000000     0          
T        Si     0.354650000000     0.393650000000     0.372450000000     0          
T        Si     0.220400000000     0.075500000000     0.157200000000     0          
T        Si     0.264850000000     0.305250000000     0.398750000000     0          
T        Si     0.265550000000     0.305400000000     0.286250000000     0          
T        Si     0.187350000000     0.059100000000     0.065800000000     0          
T        Si     0.351750000000     0.391300000000     0.000000000000     0          
O        O      0.435500000000     0.371050000000     0.370200000000     0          
O        O      0.446650000000     0.321150000000     0.349400000000     0          
O        O      0.000000000000     0.383800000000     0.361800000000     0          
O        O      0.461800000000     0.342900000000     0.408300000000     0          
O        O      0.175500000000     0.240500000000     0.131400000000     0          
O        O      0.161900000000     0.228150000000     0.192050000000     0          
O        O      0.116800000000     0.233600000000     0.154850000000     0          
O        O      0.447900000000     0.280600000000     0.427600000000     0          
O        O      0.000000000000     0.291600000000     0.389950000000     0          
O        O      0.455150000000     0.227550000000     0.408900000000     0          
O        O      0.456250000000     0.274200000000     0.250000000000     0          
O        O      0.450400000000     0.225200000000     0.289150000000     0          
O        O      0.000000000000     0.290750000000     0.297700000000     0          
O        O      0.100500000000     0.200950000000     0.068450000000     0          
O        O      0.126350000000     0.171750000000     0.031000000000     0          
O        O      0.000000000000     0.384500000000     0.000000000000     0          
O        O      0.432850000000     0.365700000000     0.000000000000     0          
T        Si     0.461000000000     0.354650000000     0.372450000000     0          
T        Si     0.144900000000     0.220400000000     0.157200000000     0          
T        Si     0.459600000000     0.264850000000     0.398750000000     0          
T        Si     0.460150000000     0.265550000000     0.286250000000     0          
T        Si     0.128250000000     0.187350000000     0.065800000000     0          
T        Si     0.460450000000     0.351750000000     0.000000000000     0          
O        O      0.064450000000     0.435500000000     0.370200000000     0          
O        O      0.125500000000     0.446650000000     0.349400000000     0          
O        O      0.116200000000     0.000000000000     0.361800000000     0          
O        O      0.118900000000     0.461800000000     0.408300000000     0          
O        O      0.435000000000     0.175500000000     0.131400000000     0          
O        O      0.433750000000     0.161900000000     0.192050000000     0          
O        O      0.383200000000     0.116800000000     0.154850000000     0          
O        O      0.167300000000     0.447900000000     0.427600000000     0          
O        O      0.208400000000     0.000000000000     0.389950000000     0          
O        O      0.227600000000     0.455150000000     0.408900000000     0          
O        O      0.182050000000     0.456250000000     0.250000000000     0          
O        O      0.225200000000     0.450400000000     0.289150000000     0          
O        O      0.209250000000     0.000000000000     0.297700000000     0          
O        O      0.399550000000     0.100500000000     0.068450000000     0          
O        O      0.454600000000     0.126350000000     0.031000000000     0          
O        O      0.115500000000     0.000000000000     0.000000000000     0          
O        O      0.067150000000     0.432850000000     0.000000000000     0          
T        Si     0.106350000000     0.461000000000     0.372450000000     0          
T        Si     0.424500000000     0.144900000000     0.157200000000     0          
T        Si     0.194750000000     0.459600000000     0.398750000000     0          
T        Si     0.194600000000     0.460150000000     0.286250000000     0          
T        Si     0.440900000000     0.128250000000     0.065800000000     0          
T        Si     0.108700000000     0.460450000000     0.000000000000     0          
O        O      0.128950000000     0.064450000000     0.370200000000     0          
O        O      0.178850000000     0.125500000000     0.349400000000     0          
O        O      0.116200000000     0.116200000000     0.361800000000     0          
O        O      0.157100000000     0.118900000000     0.408300000000     0          
O        O      0.259500000000     0.435000000000     0.131400000000     0          
O        O      0.271850000000     0.433750000000     0.192050000000     0          
O        O      0.266400000000     0.383200000000     0.154850000000     0          
O        O      0.219400000000     0.167300000000     0.427600000000     0          
O        O      0.208400000000     0.208400000000     0.389950000000     0          
O        O      0.272450000000     0.227600000000     0.408900000000     0          
O        O      0.225800000000     0.182050000000     0.250000000000     0          
O        O      0.274800000000     0.225200000000     0.289150000000     0          
O        O      0.209250000000     0.209250000000     0.297700000000     0          
O        O      0.299050000000     0.399550000000     0.068450000000     0          
O        O      0.328250000000     0.454600000000     0.031000000000     0          
O        O      0.115500000000     0.115500000000     0.000000000000     0          
O        O      0.134300000000     0.067150000000     0.000000000000     0          
T        Si     0.145350000000     0.106350000000     0.372450000000     0          
T        Si     0.279600000000     0.424500000000     0.157200000000     0          
T        Si     0.235150000000     0.194750000000     0.398750000000     0          
T        Si     0.234450000000     0.194600000000     0.286250000000     0          
T        Si     0.312650000000     0.440900000000     0.065800000000     0          
T        Si     0.148250000000     0.108700000000     0.000000000000     0          
O        O      0.371050000000     0.435500000000     0.129800000000     0          
O        O      0.321150000000     0.446650000000     0.150600000000     0          
O        O      0.383800000000     0.000000000000     0.138200000000     0          
O        O      0.342900000000     0.461800000000     0.091700000000     0          
O        O      0.240500000000     0.175500000000     0.368600000000     0          
O        O      0.228150000000     0.161900000000     0.307950000000     0          
O        O      0.233600000000     0.116800000000     0.345150000000     0          
O        O      0.280600000000     0.447900000000     0.072400000000     0          
O        O      0.291600000000     0.000000000000     0.110050000000     0          
O        O      0.227550000000     0.455150000000     0.091100000000     0          
O        O      0.274200000000     0.456250000000     0.250000000000     0          
O        O      0.225200000000     0.450400000000     0.210850000000     0          
O        O      0.290750000000     0.000000000000     0.202300000000     0          
O        O      0.200950000000     0.100500000000     0.431550000000     0          
O        O      0.171750000000     0.126350000000     0.469000000000     0          
T        Si     0.354650000000     0.461000000000     0.127550000000     0          
T        Si     0.220400000000     0.144900000000     0.342800000000     0          
T        Si     0.264850000000     0.459600000000     0.101250000000     0          
T        Si     0.265550000000     0.460150000000     0.213750000000     0          
T        Si     0.187350000000     0.128250000000     0.434200000000     0          
T        Si     0.351750000000     0.460450000000     0.000000000000     0          
O        O      0.435550000000     0.371050000000     0.129800000000     0          
O        O      0.374500000000     0.321150000000     0.150600000000     0          
O        O      0.383800000000     0.383800000000     0.138200000000     0          
O        O      0.381100000000     0.342900000000     0.091700000000     0          
O        O      0.065000000000     0.240500000000     0.368600000000     0          
O        O      0.066250000000     0.228150000000     0.307950000000     0          
O        O      0.116800000000     0.233600000000     0.345150000000     0          
O        O      0.332700000000     0.280600000000     0.072400000000     0          
O        O      0.291600000000     0.291600000000     0.110050000000     0          
O        O      0.272400000000     0.227550000000     0.091100000000     0          
O        O      0.317950000000     0.274200000000     0.250000000000     0          
O        O      0.274800000000     0.225200000000     0.210850000000     0          
O        O      0.290750000000     0.290750000000     0.202300000000     0          
O        O      0.100450000000     0.200950000000     0.431550000000     0          
O        O      0.045400000000     0.171750000000     0.469000000000     0          
T        Si     0.393650000000     0.354650000000     0.127550000000     0          
T        Si     0.075500000000     0.220400000000     0.342800000000     0          
T        Si     0.305250000000     0.264850000000     0.101250000000     0          
T        Si     0.305400000000     0.265550000000     0.213750000000     0          
T        Si     0.059100000000     0.187350000000     0.434200000000     0          
T        Si     0.391300000000     0.351750000000     0.000000000000     0          
O        O      0.064500000000     0.435550000000     0.129800000000     0          
O        O      0.053350000000     0.374500000000     0.150600000000     0          
O        O      0.000000000000     0.383800000000     0.138200000000     0          
O        O      0.038200000000     0.381100000000     0.091700000000     0          
O        O      0.324500000000     0.065000000000     0.368600000000     0          
O        O      0.338100000000     0.066250000000     0.307950000000     0          
O        O      0.383200000000     0.116800000000     0.345150000000     0          
O        O      0.052100000000     0.332700000000     0.072400000000     0          
O        O      0.000000000000     0.291600000000     0.110050000000     0          
O        O      0.044850000000     0.272400000000     0.091100000000     0          
O        O      0.043750000000     0.317950000000     0.250000000000     0          
O        O      0.049600000000     0.274800000000     0.210850000000     0          
O        O      0.000000000000     0.290750000000     0.202300000000     0          
O        O      0.399500000000     0.100450000000     0.431550000000     0          
O        O      0.373650000000     0.045400000000     0.469000000000     0          
T        Si     0.039000000000     0.393650000000     0.127550000000     0          
T        Si     0.355100000000     0.075500000000     0.342800000000     0          
T        Si     0.040400000000     0.305250000000     0.101250000000     0          
T        Si     0.039850000000     0.305400000000     0.213750000000     0          
T        Si     0.371750000000     0.059100000000     0.434200000000     0          
T        Si     0.039550000000     0.391300000000     0.000000000000     0          
O        O      0.128950000000     0.064500000000     0.129800000000     0          
O        O      0.178850000000     0.053350000000     0.150600000000     0          
O        O      0.116200000000     0.000000000000     0.138200000000     0          
O        O      0.157100000000     0.038200000000     0.091700000000     0          
O        O      0.259500000000     0.324500000000     0.368600000000     0          
O        O      0.271850000000     0.338100000000     0.307950000000     0          
O        O      0.266400000000     0.383200000000     0.345150000000     0          
O        O      0.219400000000     0.052100000000     0.072400000000     0          
O        O      0.208400000000     0.000000000000     0.110050000000     0          
O        O      0.272450000000     0.044850000000     0.091100000000     0          
O        O      0.225800000000     0.043750000000     0.250000000000     0          
O        O      0.274800000000     0.049600000000     0.210850000000     0          
O        O      0.209250000000     0.000000000000     0.202300000000     0          
O        O      0.299050000000     0.399500000000     0.431550000000     0          
O        O      0.328250000000     0.373650000000     0.469000000000     0          
T        Si     0.145350000000     0.039000000000     0.127550000000     0          
T        Si     0.279600000000     0.355100000000     0.342800000000     0          
T        Si     0.235150000000     0.040400000000     0.101250000000     0          
T        Si     0.234450000000     0.039850000000     0.213750000000     0          
T        Si     0.312650000000     0.371750000000     0.434200000000     0          
T        Si     0.148250000000     0.039550000000     0.000000000000     0          
O        O      0.064450000000     0.128950000000     0.129800000000     0          
O        O      0.125500000000     0.178850000000     0.150600000000     0          
O        O      0.116200000000     0.116200000000     0.138200000000     0          
O        O      0.118900000000     0.157100000000     0.091700000000     0          
O        O      0.435000000000     0.259500000000     0.368600000000     0          
O        O      0.433750000000     0.271850000000     0.307950000000     0          
O        O      0.383200000000     0.266400000000     0.345150000000     0          
O        O      0.167300000000     0.219400000000     0.072400000000     0          
O        O      0.208400000000     0.208400000000     0.110050000000     0          
O        O      0.227600000000     0.272450000000     0.091100000000     0          
O        O      0.182050000000     0.225800000000     0.250000000000     0          
O        O      0.225200000000     0.274800000000     0.210850000000     0          
O        O      0.209250000000     0.209250000000     0.202300000000     0          
O        O      0.399550000000     0.299050000000     0.431550000000     0          
O        O      0.454600000000     0.328250000000     0.469000000000     0          
T        Si     0.106350000000     0.145350000000     0.127550000000     0          
T        Si     0.424500000000     0.279600000000     0.342800000000     0          
T        Si     0.194750000000     0.235150000000     0.101250000000     0          
T        Si     0.194600000000     0.234450000000     0.213750000000     0          
T        Si     0.440900000000     0.312650000000     0.434200000000     0          
T        Si     0.108700000000     0.148250000000     0.000000000000     0          
O        O      0.435500000000     0.064450000000     0.129800000000     0          
O        O      0.446650000000     0.125500000000     0.150600000000     0          
O        O      0.000000000000     0.116200000000     0.138200000000     0          
O        O      0.461800000000     0.118900000000     0.091700000000     0          
O        O      0.175500000000     0.435000000000     0.368600000000     0          
O        O      0.161900000000     0.433750000000     0.307950000000     0          
O        O      0.116800000000     0.383200000000     0.345150000000     0          
O        O      0.447900000000     0.167300000000     0.072400000000     0          
O        O      0.000000000000     0.208400000000     0.110050000000     0          
O        O      0.455150000000     0.227600000000     0.091100000000     0          
O        O      0.456250000000     0.182050000000     0.250000000000     0          
O        O      0.450400000000     0.225200000000     0.210850000000     0          
O        O      0.000000000000     0.209250000000     0.202300000000     0          
O        O      0.100500000000     0.399550000000     0.431550000000     0          
O        O      0.126350000000     0.454600000000     0.469000000000     0          
T        Si     0.461000000000     0.106350000000     0.127550000000     0          
T        Si     0.144900000000     0.424500000000     0.342800000000     0          
T        Si     0.459600000000     0.194750000000     0.101250000000     0          
T        Si     0.460150000000     0.194600000000     0.213750000000     0          
T        Si     0.128250000000     0.440900000000     0.434200000000     0          
T        Si     0.460450000000     0.108700000000     0.000000000000     0          
O        O      0.446650000000     0.321150000000     0.150600000000     0          
O        O      0.461800000000     0.342900000000     0.091700000000     0          
O        O      0.175500000000     0.240500000000     0.368600000000     0          
O        O      0.161900000000     0.228150000000     0.307950000000     0          
O        O      0.447900000000     0.280600000000     0.072400000000     0          
O        O      0.126350000000     0.171750000000     0.469000000000     0          
T        Si     0.461000000000     0.354650000000     0.127550000000     0          
T        Si     0.144900000000     0.220400000000     0.342800000000     0          
T        Si     0.459600000000     0.264850000000     0.101250000000     0          
T        Si     0.460150000000     0.265550000000     0.213750000000     0          
T        Si     0.128250000000     0.187350000000     0.434200000000     0          
O        O      0.125500000000     0.446650000000     0.150600000000     0          
O        O      0.118900000000     0.461800000000     0.091700000000     0          
O        O      0.435000000000     0.175500000000     0.368600000000     0          
O        O      0.433750000000     0.161900000000     0.307950000000     0          
O        O      0.167300000000     0.447900000000     0.072400000000     0          
O        O      0.454600000000     0.126350000000     0.469000000000     0          
T        Si     0.106350000000     0.461000000000     0.127550000000     0          
T        Si     0.424500000000     0.144900000000     0.342800000000     0          
T        Si     0.194750000000     0.459600000000     0.101250000000     0          
T        Si     0.194600000000     0.460150000000     0.213750000000     0          
T        Si     0.440900000000     0.128250000000     0.434200000000     0          
O        O      0.178850000000     0.125500000000     0.150600000000     0          
O        O      0.157100000000     0.118900000000     0.091700000000     0          
O        O      0.259500000000     0.435000000000     0.368600000000     0          
O        O      0.271850000000     0.433750000000     0.307950000000     0          
O        O      0.219400000000     0.167300000000     0.072400000000     0          
O        O      0.328250000000     0.454600000000     0.469000000000     0          
T        Si     0.145350000000     0.106350000000     0.127550000000     0          
T        Si     0.279600000000     0.424500000000     0.342800000000     0          
T        Si     0.235150000000     0.194750000000     0.101250000000     0          
T        Si     0.234450000000     0.194600000000     0.213750000000     0          
T        Si     0.312650000000     0.440900000000     0.434200000000     0          
O        O      0.053350000000     0.178850000000     0.150600000000     0          
O        O      0.038200000000     0.157100000000     0.091700000000     0          
O        O      0.324500000000     0.259500000000     0.368600000000     0          
O        O      0.338100000000     0.271850000000     0.307950000000     0          
O        O      0.052100000000     0.219400000000     0.072400000000     0          
O        O      0.373650000000     0.328250000000     0.469000000000     0          
T        Si     0.039000000000     0.145350000000     0.127550000000     0          
T        Si     0.355100000000     0.279600000000     0.342800000000     0          
T        Si     0.040400000000     0.235150000000     0.101250000000     0          
T        Si     0.039850000000     0.234450000000     0.213750000000     0          
T        Si     0.371750000000     0.312650000000     0.434200000000     0          
O        O      0.374500000000     0.053350000000     0.150600000000     0          
O        O      0.381100000000     0.038200000000     0.091700000000     0          
O        O      0.065000000000     0.324500000000     0.368600000000     0          
O        O      0.066250000000     0.338100000000     0.307950000000     0          
O        O      0.332700000000     0.052100000000     0.072400000000     0          
O        O      0.045400000000     0.373650000000     0.469000000000     0          
T        Si     0.393650000000     0.039000000000     0.127550000000     0          
T        Si     0.075500000000     0.355100000000     0.342800000000     0          
T        Si     0.305250000000     0.040400000000     0.101250000000     0          
T        Si     0.305400000000     0.039850000000     0.213750000000     0          
T        Si     0.059100000000     0.371750000000     0.434200000000     0          
O        O      0.321150000000     0.374500000000     0.150600000000     0          
O        O      0.342900000000     0.381100000000     0.091700000000     0          
O        O      0.240500000000     0.065000000000     0.368600000000     0          
O        O      0.228150000000     0.066250000000     0.307950000000     0          
O        O      0.280600000000     0.332700000000     0.072400000000     0          
O        O      0.171750000000     0.045400000000     0.469000000000     0          
T        Si     0.354650000000     0.393650000000     0.127550000000     0          
T        Si     0.220400000000     0.075500000000     0.342800000000     0          
T        Si     0.264850000000     0.305250000000     0.101250000000     0          
T        Si     0.265550000000     0.305400000000     0.213750000000     0          
T        Si     0.187350000000     0.059100000000     0.434200000000     0          
O        O      0.178850000000     0.053350000000     0.349400000000     0          
O        O      0.157100000000     0.038200000000     0.408300000000     0          
O        O      0.259500000000     0.324500000000     0.131400000000     0          
O        O      0.271850000000     0.338100000000     0.192050000000     0          
O        O      0.219400000000     0.052100000000     0.427600000000     0          
O        O      0.328250000000     0.373650000000     0.031000000000     0          
T        Si     0.145350000000     0.039000000000     0.372450000000     0          
T        Si     0.279600000000     0.355100000000     0.157200000000     0          
T        Si     0.235150000000     0.040400000000     0.398750000000     0          
T        Si     0.234450000000     0.039850000000     0.286250000000     0          
T        Si     0.312650000000     0.371750000000     0.065800000000     0          
O        O      0.125500000000     0.178850000000     0.349400000000     0          
O        O      0.118900000000     0.157100000000     0.408300000000     0          
O        O      0.435000000000     0.259500000000     0.131400000000     0          
O        O      0.433750000000     0.271850000000     0.192050000000     0          
O        O      0.167300000000     0.219400000000     0.427600000000     0          
O        O      0.454600000000     0.328250000000     0.031000000000     0          
T        Si     0.106350000000     0.145350000000     0.372450000000     0          
T        Si     0.424500000000     0.279600000000     0.157200000000     0          
T        Si     0.194750000000     0.235150000000     0.398750000000     0          
T        Si     0.194600000000     0.234450000000     0.286250000000     0          
T        Si     0.440900000000     0.312650000000     0.065800000000     0          
O        O      0.446650000000     0.125500000000     0.349400000000     0          
O        O      0.461800000000     0.118900000000     0.408300000000     0          
O        O      0.175500000000     0.435000000000     0.131400000000     0          
O        O      0.161900000000     0.433750000000     0.192050000000     0          
O        O      0.447900000000     0.167300000000     0.427600000000     0          
O        O      0.126350000000     0.454600000000     0.031000000000     0          
T        Si     0.461000000000     0.106350000000     0.372450000000     0          
T        Si     0.144900000000     0.424500000000     0.157200000000     0          
T        Si     0.459600000000     0.194750000000     0.398750000000     0          
T        Si     0.460150000000     0.194600000000     0.286250000000     0          
T        Si     0.128250000000     0.440900000000     0.065800000000     0          
O        O      0.321150000000     0.446650000000     0.349400000000     0          
O        O      0.342900000000     0.461800000000     0.408300000000     0          
O        O      0.240500000000     0.175500000000     0.131400000000     0          
O        O      0.228150000000     0.161900000000     0.192050000000     0          
O        O      0.280600000000     0.447900000000     0.427600000000     0          
O        O      0.171750000000     0.126350000000     0.031000000000     0          
T        Si     0.354650000000     0.461000000000     0.372450000000     0          
T        Si     0.220400000000     0.144900000000     0.157200000000     0          
T        Si     0.264850000000     0.459600000000     0.398750000000     0          
T        Si     0.265550000000     0.460150000000     0.286250000000     0          
T        Si     0.187350000000     0.128250000000     0.065800000000     0          
O        O      0.374500000000     0.321150000000     0.349400000000     0          
O        O      0.381100000000     0.342900000000     0.408300000000     0          
O        O      0.065000000000     0.240500000000     0.131400000000     0          
O        O      0.066250000000     0.228150000000     0.192050000000     0          
O        O      0.332700000000     0.280600000000     0.427600000000     0          
O        O      0.045400000000     0.171750000000     0.031000000000     0          
T        Si     0.393650000000     0.354650000000     0.372450000000     0          
T        Si     0.075500000000     0.220400000000     0.157200000000     0          
T        Si     0.305250000000     0.264850000000     0.398750000000     0          
T        Si     0.305400000000     0.265550000000     0.286250000000     0          
T        Si     0.059100000000     0.187350000000     0.065800000000     0          
O        O      0.053350000000     0.374500000000     0.349400000000     0          
O        O      0.038200000000     0.381100000000     0.408300000000     0          
O        O      0.324500000000     0.065000000000     0.131400000000     0          
O        O      0.338100000000     0.066250000000     0.192050000000     0          
O        O      0.052100000000     0.332700000000     0.427600000000     0          
O        O      0.373650000000     0.045400000000     0.031000000000     0          
T        Si     0.039000000000     0.393650000000     0.372450000000     0          
T        Si     0.355100000000     0.075500000000     0.157200000000     0          
T        Si     0.040400000000     0.305250000000     0.398750000000     0          
T        Si     0.039850000000     0.305400000000     0.286250000000     0          
T        Si     0.371750000000     0.059100000000     0.065800000000     0          
O        O      0.064500000000     0.128950000000     0.870200000000     0          
O        O      0.053350000000     0.178850000000     0.849400000000     0          
O        O      0.000000000000     0.116200000000     0.861800000000     0          
O        O      0.038200000000     0.157100000000     0.908300000000     0          
O        O      0.324500000000     0.259500000000     0.631400000000     0          
O        O      0.338100000000     0.271850000000     0.692050000000     0          
O        O      0.383200000000     0.266400000000     0.654850000000     0          
O        O      0.052100000000     0.219400000000     0.927600000000     0          
O        O      0.000000000000     0.208400000000     0.889950000000     0          
O        O      0.044850000000     0.272450000000     0.908900000000     0          
O        O      0.043750000000     0.225800000000     0.750000000000     0          
O        O      0.049600000000     0.274800000000     0.789150000000     0          
O        O      0.000000000000     0.209250000000     0.797700000000     0          
O        O      0.399500000000     0.299050000000     0.568450000000     0          
O        O      0.373650000000     0.328250000000     0.531000000000     0          
O        O      0.000000000000     0.115500000000     0.500000000000     0          
O        O      0.067150000000     0.134300000000     0.500000000000     0          
T        Si     0.039000000000     0.145350000000     0.872450000000     0          
T        Si     0.355100000000     0.279600000000     0.657200000000     0          
T        Si     0.040400000000     0.235150000000     0.898750000000     0          
T        Si     0.039850000000     0.234450000000     0.786250000000     0          
T        Si     0.371750000000     0.312650000000     0.565800000000     0          
T        Si     0.039550000000     0.148250000000     0.500000000000     0          
O        O      0.435550000000     0.064500000000     0.870200000000     0          
O        O      0.374500000000     0.053350000000     0.849400000000     0          
O        O      0.383800000000     0.000000000000     0.861800000000     0          
O        O      0.381100000000     0.038200000000     0.908300000000     0          
O        O      0.065000000000     0.324500000000     0.631400000000     0          
O        O      0.066250000000     0.338100000000     0.692050000000     0          
O        O      0.116800000000     0.383200000000     0.654850000000     0          
O        O      0.332700000000     0.052100000000     0.927600000000     0          
O        O      0.291600000000     0.000000000000     0.889950000000     0          
O        O      0.272400000000     0.044850000000     0.908900000000     0          
O        O      0.317950000000     0.043750000000     0.750000000000     0          
O        O      0.274800000000     0.049600000000     0.789150000000     0          
O        O      0.290750000000     0.000000000000     0.797700000000     0          
O        O      0.100450000000     0.399500000000     0.568450000000     0          
O        O      0.045400000000     0.373650000000     0.531000000000     0          
O        O      0.384500000000     0.000000000000     0.500000000000     0          
O        O      0.432850000000     0.067150000000     0.500000000000     0          
T        Si     0.393650000000     0.039000000000     0.872450000000     0          
T        Si     0.075500000000     0.355100000000     0.657200000000     0          
T        Si     0.305250000000     0.040400000000     0.898750000000     0          
T        Si     0.305400000000     0.039850000000     0.786250000000     0          
T        Si     0.059100000000     0.371750000000     0.565800000000     0          
T        Si     0.391300000000     0.039550000000     0.500000000000     0          
O        O      0.371050000000     0.435550000000     0.870200000000     0          
O        O      0.321150000000     0.374500000000     0.849400000000     0          
O        O      0.383800000000     0.383800000000     0.861800000000     0          
O        O      0.342900000000     0.381100000000     0.908300000000     0          
O        O      0.240500000000     0.065000000000     0.631400000000     0          
O        O      0.228150000000     0.066250000000     0.692050000000     0          
O        O      0.233600000000     0.116800000000     0.654850000000     0          
O        O      0.280600000000     0.332700000000     0.927600000000     0          
O        O      0.291600000000     0.291600000000     0.889950000000     0          
O        O      0.227550000000     0.272400000000     0.908900000000     0          
O        O      0.274200000000     0.317950000000     0.750000000000     0          
O        O      0.225200000000     0.274800000000     0.789150000000     0          
O        O      0.290750000000     0.290750000000     0.797700000000     0          
O        O      0.200950000000     0.100450000000     0.568450000000     0          
O        O      0.171750000000     0.045400000000     0.531000000000     0          
O        O      0.384500000000     0.384500000000     0.500000000000     0          
O        O      0.365700000000     0.432850000000     0.500000000000     0          
T        Si     0.354650000000     0.393650000000     0.872450000000     0          
T        Si     0.220400000000     0.075500000000     0.657200000000     0          
T        Si     0.264850000000     0.305250000000     0.898750000000     0          
T        Si     0.265550000000     0.305400000000     0.786250000000     0          
T        Si     0.187350000000     0.059100000000     0.565800000000     0          
T        Si     0.351750000000     0.391300000000     0.500000000000     0          
O        O      0.435500000000     0.371050000000     0.870200000000     0          
O        O      0.446650000000     0.321150000000     0.849400000000     0          
O        O      0.000000000000     0.383800000000     0.861800000000     0          
O        O      0.461800000000     0.342900000000     0.908300000000     0          
O        O      0.175500000000     0.240500000000     0.631400000000     0          
O        O      0.161900000000     0.228150000000     0.692050000000     0          
O        O      0.116800000000     0.233600000000     0.654850000000     0          
O        O      0.447900000000     0.280600000000     0.927600000000     0          
O        O      0.000000000000     0.291600000000     0.889950000000     0          
O        O      0.455150000000     0.227550000000     0.908900000000     0          
O        O      0.456250000000     0.274200000000     0.750000000000     0          
O        O      0.450400000000     0.225200000000     0.789150000000     0          
O        O      0.000000000000     0.290750000000     0.797700000000     0          
O        O      0.100500000000     0.200950000000     0.568450000000     0          
O        O      0.126350000000     0.171750000000     0.531000000000     0          
O        O      0.000000000000     0.384500000000     0.500000000000     0          
O        O      0.432850000000     0.365700000000     0.500000000000     0          
T        Si     0.461000000000     0.354650000000     0.872450000000     0          
T        Si     0.144900000000     0.220400000000     0.657200000000     0          
T        Si     0.459600000000     0.264850000000     0.898750000000     0          
T        Si     0.460150000000     0.265550000000     0.786250000000     0          
T        Si     0.128250000000     0.187350000000     0.565800000000     0          
T        Si     0.460450000000     0.351750000000     0.500000000000     0          
O        O      0.064450000000     0.435500000000     0.870200000000     0          
O        O      0.125500000000     0.446650000000     0.849400000000     0          
O        O      0.116200000000     0.000000000000     0.861800000000     0          
O        O      0.118900000000     0.461800000000     0.908300000000     0          
O        O      0.435000000000     0.175500000000     0.631400000000     0          
O        O      0.433750000000     0.161900000000     0.692050000000     0          
O        O      0.383200000000     0.116800000000     0.654850000000     0          
O        O      0.167300000000     0.447900000000     0.927600000000     0          
O        O      0.208400000000     0.000000000000     0.889950000000     0          
O        O      0.227600000000     0.455150000000     0.908900000000     0          
O        O      0.182050000000     0.456250000000     0.750000000000     0          
O        O      0.225200000000     0.450400000000     0.789150000000     0          
O        O      0.209250000000     0.000000000000     0.797700000000     0          
O        O      0.399550000000     0.100500000000     0.568450000000     0          
O        O      0.454600000000     0.126350000000     0.531000000000     0          
O        O      0.115500000000     0.000000000000     0.500000000000     0          
O        O      0.067150000000     0.432850000000     0.500000000000     0          
T        Si     0.106350000000     0.461000000000     0.872450000000     0          
T        Si     0.424500000000     0.144900000000     0.657200000000     0          
T        Si     0.194750000000     0.459600000000     0.898750000000     0          
T        Si     0.194600000000     0.460150000000     0.786250000000     0          
T        Si     0.440900000000     0.128250000000     0.565800000000     0          
T        Si     0.108700000000     0.460450000000     0.500000000000     0          
O        O      0.128950000000     0.064450000000     0.870200000000     0          
O        O      0.178850000000     0.125500000000     0.849400000000     0          
O        O      0.116200000000     0.116200000000     0.861800000000     0          
O        O      0.157100000000     0.118900000000     0.908300000000     0          
O        O      0.259500000000     0.435000000000     0.631400000000     0          
O        O      0.271850000000     0.433750000000     0.692050000000     0          
O        O      0.266400000000     0.383200000000     0.654850000000     0          
O        O      0.219400000000     0.167300000000     0.927600000000     0          
O        O      0.208400000000     0.208400000000     0.889950000000     0          
O        O      0.272450000000     0.227600000000     0.908900000000     0          
O        O      0.225800000000     0.182050000000     0.750000000000     0          
O        O      0.274800000000     0.225200000000     0.789150000000     0          
O        O      0.209250000000     0.209250000000     0.797700000000     0          
O        O      0.299050000000     0.399550000000     0.568450000000     0          
O        O      0.328250000000     0.454600000000     0.531000000000     0          
O        O      0.115500000000     0.115500000000     0.500000000000     0          
O        O      0.134300000000     0.067150000000     0.500000000000     0          
T        Si     0.145350000000     0.106350000000     0.872450000000     0          
T        Si     0.279600000000     0.424500000000     0.657200000000     0          
T        Si     0.235150000000     0.194750000000     0.898750000000     0          
T        Si     0.234450000000     0.194600000000     0.786250000000     0          
T        Si     0.312650000000     0.440900000000     0.565800000000     0          
T        Si     0.148250000000     0.108700000000     0.500000000000     0          
O        O      0.371050000000     0.435500000000     0.629800000000     0          
O        O      0.321150000000     0.446650000000     0.650600000000     0          
O        O      0.383800000000     0.000000000000     0.638200000000     0          
O        O      0.342900000000     0.461800000000     0.591700000000     0          
O        O      0.240500000000     0.175500000000     0.868600000000     0          
O        O      0.228150000000     0.161900000000     0.807950000000     0          
O        O      0.233600000000     0.116800000000     0.845150000000     0          
O        O      0.280600000000     0.447900000000     0.572400000000     0          
O        O      0.291600000000     0.000000000000     0.610050000000     0          
O        O      0.227550000000     0.455150000000     0.591100000000     0          
O        O      0.274200000000     0.456250000000     0.750000000000     0          
O        O      0.225200000000     0.450400000000     0.710850000000     0          
O        O      0.290750000000     0.000000000000     0.702300000000     0          
O        O      0.200950000000     0.100500000000     0.931550000000     0          
O        O      0.171750000000     0.126350000000     0.969000000000     0          
T        Si     0.354650000000     0.461000000000     0.627550000000     0          
T        Si     0.220400000000     0.144900000000     0.842800000000     0          
T        Si     0.264850000000     0.459600000000     0.601250000000     0          
T        Si     0.265550000000     0.460150000000     0.713750000000     0          
T        Si     0.187350000000     0.128250000000     0.934200000000     0          
T        Si     0.351750000000     0.460450000000     0.500000000000     0          
O        O      0.435550000000     0.371050000000     0.629800000000     0          
O        O      0.374500000000     0.321150000000     0.650600000000     0          
O        O      0.383800000000     0.383800000000     0.638200000000     0          
O        O      0.381100000000     0.342900000000     0.591700000000     0          
O        O      0.065000000000     0.240500000000     0.868600000000     0          
O        O      0.066250000000     0.228150000000     0.807950000000     0          
O        O      0.116800000000     0.233600000000     0.845150000000     0          
O        O      0.332700000000     0.280600000000     0.572400000000     0          
O        O      0.291600000000     0.291600000000     0.610050000000     0          
O        O      0.272400000000     0.227550000000     0.591100000000     0          
O        O      0.317950000000     0.274200000000     0.750000000000     0          
O        O      0.274800000000     0.225200000000     0.710850000000     0          
O        O      0.290750000000     0.290750000000     0.702300000000     0          
O        O      0.100450000000     0.200950000000     0.931550000000     0          
O        O      0.045400000000     0.171750000000     0.969000000000     0          
T        Si     0.393650000000     0.354650000000     0.627550000000     0          
T        Si     0.075500000000     0.220400000000     0.842800000000     0          
T        Si     0.305250000000     0.264850000000     0.601250000000     0          
T        Si     0.305400000000     0.265550000000     0.713750000000     0          
T        Si     0.059100000000     0.187350000000     0.934200000000     0          
T        Si     0.391300000000     0.351750000000     0.500000000000     0          
O        O      0.064500000000     0.435550000000     0.629800000000     0          
O        O      0.053350000000     0.374500000000     0.650600000000     0          
O        O      0.000000000000     0.383800000000     0.638200000000     0          
O        O      0.038200000000     0.381100000000     0.591700000000     0          
O        O      0.324500000000     0.065000000000     0.868600000000     0          
O        O      0.338100000000     0.066250000000     0.807950000000     0          
O        O      0.383200000000     0.116800000000     0.845150000000     0          
O        O      0.052100000000     0.332700000000     0.572400000000     0          
O        O      0.000000000000     0.291600000000     0.610050000000     0          
O        O      0.044850000000     0.272400000000     0.591100000000     0          
O        O      0.043750000000     0.317950000000     0.750000000000     0          
O        O      0.049600000000     0.274800000000     0.710850000000     0          
O        O      0.000000000000     0.290750000000     0.702300000000     0          
O        O      0.399500000000     0.100450000000     0.931550000000     0          
O        O      0.373650000000     0.045400000000     0.969000000000     0          
T        Si     0.039000000000     0.393650000000     0.627550000000     0          
T        Si     0.355100000000     0.075500000000     0.842800000000     0          
T        Si     0.040400000000     0.305250000000     0.601250000000     0          
T        Si     0.039850000000     0.305400000000     0.713750000000     0          
T        Si     0.371750000000     0.059100000000     0.934200000000     0          
T        Si     0.039550000000     0.391300000000     0.500000000000     0          
O        O      0.128950000000     0.064500000000     0.629800000000     0          
O        O      0.178850000000     0.053350000000     0.650600000000     0          
O        O      0.116200000000     0.000000000000     0.638200000000     0          
O        O      0.157100000000     0.038200000000     0.591700000000     0          
O        O      0.259500000000     0.324500000000     0.868600000000     0          
O        O      0.271850000000     0.338100000000     0.807950000000     0          
O        O      0.266400000000     0.383200000000     0.845150000000     0          
O        O      0.219400000000     0.052100000000     0.572400000000     0          
O        O      0.208400000000     0.000000000000     0.610050000000     0          
O        O      0.272450000000     0.044850000000     0.591100000000     0          
O        O      0.225800000000     0.043750000000     0.750000000000     0          
O        O      0.274800000000     0.049600000000     0.710850000000     0          
O        O      0.209250000000     0.000000000000     0.702300000000     0          
O        O      0.299050000000     0.399500000000     0.931550000000     0          
O        O      0.328250000000     0.373650000000     0.969000000000     0          
T        Si     0.145350000000     0.039000000000     0.627550000000     0          
T        Si     0.279600000000     0.355100000000     0.842800000000     0          
T        Si     0.235150000000     0.040400000000     0.601250000000     0          
T        Si     0.234450000000     0.039850000000     0.713750000000     0          
T        Si     0.312650000000     0.371750000000     0.934200000000     0          
T        Si     0.148250000000     0.039550000000     0.500000000000     0          
O        O      0.064450000000     0.128950000000     0.629800000000     0          
O        O      0.125500000000     0.178850000000     0.650600000000     0          
O        O      0.116200000000     0.116200000000     0.638200000000     0          
O        O      0.118900000000     0.157100000000     0.591700000000     0          
O        O      0.435000000000     0.259500000000     0.868600000000     0          
O        O      0.433750000000     0.271850000000     0.807950000000     0          
O        O      0.383200000000     0.266400000000     0.845150000000     0          
O        O      0.167300000000     0.219400000000     0.572400000000     0          
O        O      0.208400000000     0.208400000000     0.610050000000     0          
O        O      0.227600000000     0.272450000000     0.591100000000     0          
O        O      0.182050000000     0.225800000000     0.750000000000     0          
O        O      0.225200000000     0.274800000000     0.710850000000     0          
O        O      0.209250000000     0.209250000000     0.702300000000     0          
O        O      0.399550000000     0.299050000000     0.931550000000     0          
O        O      0.454600000000     0.328250000000     0.969000000000     0          
T        Si     0.106350000000     0.145350000000     0.627550000000     0          
T        Si     0.424500000000     0.279600000000     0.842800000000     0          
T        Si     0.194750000000     0.235150000000     0.601250000000     0          
T        Si     0.194600000000     0.234450000000     0.713750000000     0          
T        Si     0.440900000000     0.312650000000     0.934200000000     0          
T        Si     0.108700000000     0.148250000000     0.500000000000     0          
O        O      0.435500000000     0.064450000000     0.629800000000     0          
O        O      0.446650000000     0.125500000000     0.650600000000     0          
O        O      0.000000000000     0.116200000000     0.638200000000     0          
O        O      0.461800000000     0.118900000000     0.591700000000     0          
O        O      0.175500000000     0.435000000000     0.868600000000     0          
O        O      0.161900000000     0.433750000000     0.807950000000     0          
O        O      0.116800000000     0.383200000000     0.845150000000     0          
O        O      0.447900000000     0.167300000000     0.572400000000     0          
O        O      0.000000000000     0.208400000000     0.610050000000     0          
O        O      0.455150000000     0.227600000000     0.591100000000     0          
O        O      0.456250000000     0.182050000000     0.750000000000     0          
O        O      0.450400000000     0.225200000000     0.710850000000     0          
O        O      0.000000000000     0.209250000000     0.702300000000     0          
O        O      0.100500000000     0.399550000000     0.931550000000     0          
O        O      0.126350000000     0.454600000000     0.969000000000     0          
T        Si     0.461000000000     0.106350000000     0.627550000000     0          
T        Si     0.144900000000     0.424500000000     0.842800000000     0          
T        Si     0.459600000000     0.194750000000     0.601250000000     0          
T        Si     0.460150000000     0.194600000000     0.713750000000     0          
T        Si     0.128250000000     0.440900000000     0.934200000000     0          
T        Si     0.460450000000     0.108700000000     0.500000000000     0          
O        O      0.446650000000     0.321150000000     0.650600000000     0          
O        O      0.461800000000     0.342900000000     0.591700000000     0          
O        O      0.175500000000     0.240500000000     0.868600000000     0          
O        O      0.161900000000     0.228150000000     0.807950000000     0          
O        O      0.447900000000     0.280600000000     0.572400000000     0          
O        O      0.126350000000     0.171750000000     0.969000000000     0          
T        Si     0.461000000000     0.354650000000     0.627550000000     0          
T        Si     0.144900000000     0.220400000000     0.842800000000     0          
T        Si     0.459600000000     0.264850000000     0.601250000000     0          
T        Si     0.460150000000     0.265550000000     0.713750000000     0          
T        Si     0.128250000000     0.187350000000     0.934200000000     0          
O        O      0.125500000000     0.446650000000     0.650600000000     0          
O        O      0.118900000000     0.461800000000     0.591700000000     0          
O        O      0.435000000000     0.175500000000     0.868600000000     0          
O        O      0.433750000000     0.161900000000     0.807950000000     0          
O        O      0.167300000000     0.447900000000     0.572400000000     0          
O        O      0.454600000000     0.126350000000     0.969000000000     0          
T        Si     0.106350000000     0.461000000000     0.627550000000     0          
T        Si     0.424500000000     0.144900000000     0.842800000000     0          
T        Si     0.194750000000     0.459600000000     0.601250000000     0          
T        Si     0.194600000000     0.460150000000     0.713750000000     0          
T        Si     0.440900000000     0.128250000000     0.934200000000     0          
O        O      0.178850000000     0.125500000000     0.650600000000     0          
O        O      0.157100000000     0.118900000000     0.591700000000     0          
O        O      0.259500000000     0.435000000000     0.868600000000     0          
O        O      0.271850000000     0.433750000000     0.807950000000     0          
O        O      0.219400000000     0.167300000000     0.572400000000     0          
O        O      0.328250000000     0.454600000000     0.969000000000     0          
T        Si     0.145350000000     0.106350000000     0.627550000000     0          
T        Si     0.279600000000     0.424500000000     0.842800000000     0          
T        Si     0.235150000000     0.194750000000     0.601250000000     0          
T        Si     0.234450000000     0.194600000000     0.713750000000     0          
T        Si     0.312650000000     0.440900000000     0.934200000000     0          
O        O      0.053350000000     0.178850000000     0.650600000000     0          
O        O      0.038200000000     0.157100000000     0.591700000000     0          
O        O      0.324500000000     0.259500000000     0.868600000000     0          
O        O      0.338100000000     0.271850000000     0.807950000000     0          
O        O      0.052100000000     0.219400000000     0.572400000000     0          
O        O      0.373650000000     0.328250000000     0.969000000000     0          
T        Si     0.039000000000     0.145350000000     0.627550000000     0          
T        Si     0.355100000000     0.279600000000     0.842800000000     0          
T        Si     0.040400000000     0.235150000000     0.601250000000     0          
T        Si     0.039850000000     0.234450000000     0.713750000000     0          
T        Si     0.371750000000     0.312650000000     0.934200000000     0          
O        O      0.374500000000     0.053350000000     0.650600000000     0          
O        O      0.381100000000     0.038200000000     0.591700000000     0          
O        O      0.065000000000     0.324500000000     0.868600000000     0          
O        O      0.066250000000     0.338100000000     0.807950000000     0          
O        O      0.332700000000     0.052100000000     0.572400000000     0          
O        O      0.045400000000     0.373650000000     0.969000000000     0          
T        Si     0.393650000000     0.039000000000     0.627550000000     0          
T        Si     0.075500000000     0.355100000000     0.842800000000     0          
T        Si     0.305250000000     0.040400000000     0.601250000000     0          
T        Si     0.305400000000     0.039850000000     0.713750000000     0          
T        Si     0.059100000000     0.371750000000     0.934200000000     0          
O        O      0.321150000000     0.374500000000     0.650600000000     0          
O        O      0.342900000000     0.381100000000     0.591700000000     0          
O        O      0.240500000000     0.065000000000     0.868600000000     0          
O        O      0.228150000000     0.066250000000     0.807950000000     0          
O        O      0.280600000000     0.332700000000     0.572400000000     0          
O        O      0.171750000000     0.045400000000     0.969000000000     0          
T        Si     0.354650000000     0.393650000000     0.627550000000     0          
T        Si     0.220400000000     0.075500000000     0.842800000000     0          
T        Si     0.264850000000     0.305250000000     0.601250000000     0          
T        Si     0.265550000000     0.305400000000     0.713750000000     0          
T        Si     0.187350000000     0.059100000000     0.934200000000     0          
O        O      0.178850000000     0.053350000000     0.849400000000     0          
O        O      0.157100000000     0.038200000000     0.908300000000     0          
O        O      0.259500000000     0.324500000000     0.631400000000     0          
O        O      0.271850000000     0.338100000000     0.692050000000     0          
O        O      0.219400000000     0.052100000000     0.927600000000     0          
O        O      0.328250000000     0.373650000000     0.531000000000     0          
T        Si     0.145350000000     0.039000000000     0.872450000000     0          
T        Si     0.279600000000     0.355100000000     0.657200000000     0          
T        Si     0.235150000000     0.040400000000     0.898750000000     0          
T        Si     0.234450000000     0.039850000000     0.786250000000     0          
T        Si     0.312650000000     0.371750000000     0.565800000000     0          
O        O      0.125500000000     0.178850000000     0.849400000000     0          
O        O      0.118900000000     0.157100000000     0.908300000000     0          
O        O      0.435000000000     0.259500000000     0.631400000000     0          
O        O      0.433750000000     0.271850000000     0.692050000000     0          
O        O      0.167300000000     0.219400000000     0.927600000000     0          
O        O      0.454600000000     0.328250000000     0.531000000000     0          
T        Si     0.106350000000     0.145350000000     0.872450000000     0          
T        Si     0.424500000000     0.279600000000     0.657200000000     0          
T        Si     0.194750000000     0.235150000000     0.898750000000     0          
T        Si     0.194600000000     0.234450000000     0.786250000000     0          
T        Si     0.440900000000     0.312650000000     0.565800000000     0          
O        O      0.446650000000     0.125500000000     0.849400000000     0          
O        O      0.461800000000     0.118900000000     0.908300000000     0          
O        O      0.175500000000     0.435000000000     0.631400000000     0          
O        O      0.161900000000     0.433750000000     0.692050000000     0          
O        O      0.447900000000     0.167300000000     0.927600000000     0          
O        O      0.126350000000     0.454600000000     0.531000000000     0          
T        Si     0.461000000000     0.106350000000     0.872450000000     0          
T        Si     0.144900000000     0.424500000000     0.657200000000     0          
T        Si     0.459600000000     0.194750000000     0.898750000000     0          
T        Si     0.460150000000     0.194600000000     0.786250000000     0          
T        Si     0.128250000000     0.440900000000     0.565800000000     0          
O        O      0.321150000000     0.446650000000     0.849400000000     0          
O        O      0.342900000000     0.461800000000     0.908300000000     0          
O        O      0.240500000000     0.175500000000     0.631400000000     0          
O        O      0.228150000000     0.161900000000     0.692050000000     0          
O        O      0.280600000000     0.447900000000     0.927600000000     0          
O        O      0.171750000000     0.126350000000     0.531000000000     0          
T        Si     0.354650000000     0.461000000000     0.872450000000     0          
T        Si     0.220400000000     0.144900000000     0.657200000000     0          
T        Si     0.264850000000     0.459600000000     0.898750000000     0          
T        Si     0.265550000000     0.460150000000     0.786250000000     0          
T        Si     0.187350000000     0.128250000000     0.565800000000     0          
O        O      0.374500000000     0.321150000000     0.849400000000     0          
O        O      0.381100000000     0.342900000000     0.908300000000     0          
O        O      0.065000000000     0.240500000000     0.631400000000     0          
O        O      0.066250000000     0.228150000000     0.692050000000     0          
O        O      0.332700000000     0.280600000000     0.927600000000     0          
O        O      0.045400000000     0.171750000000     0.531000000000     0          
T        Si     0.393650000000     0.354650000000     0.872450000000     0          
T        Si     0.075500000000     0.220400000000     0.657200000000     0          
T        Si     0.305250000000     0.264850000000     0.898750000000     0          
T        Si     0.305400000000     0.265550000000     0.786250000000     0          
T        Si     0.059100000000     0.187350000000     0.565800000000     0          
O        O      0.053350000000     0.374500000000     0.849400000000     0          
O        O      0.038200000000     0.381100000000     0.908300000000     0          
O        O      0.324500000000     0.065000000000     0.631400000000     0          
O        O      0.338100000000     0.066250000000     0.692050000000     0          
O        O      0.052100000000     0.332700000000     0.927600000000     0          
O        O      0.373650000000     0.045400000000     0.531000000000     0          
T        Si     0.039000000000     0.393650000000     0.872450000000     0          
T        Si     0.355100000000     0.075500000000     0.657200000000     0          
T        Si     0.040400000000     0.305250000000     0.898750000000     0          
T        Si     0.039850000000     0.305400000000     0.786250000000     0          
T        Si     0.371750000000     0.059100000000     0.565800000000     0          
O        O      0.064500000000     0.628950000000     0.370200000000     0          
O        O      0.053350000000     0.678850000000     0.349400000000     0          
O        O      0.000000000000     0.616200000000     0.361800000000     0          
O        O      0.038200000000     0.657100000000     0.408300000000     0          
O        O      0.324500000000     0.759500000000     0.131400000000     0          
O        O      0.338100000000     0.771850000000     0.192050000000     0          
O        O      0.383200000000     0.766400000000     0.154850000000     0          
O        O      0.052100000000     0.719400000000     0.427600000000     0          
O        O      0.000000000000     0.708400000000     0.389950000000     0          
O        O      0.044850000000     0.772450000000     0.408900000000     0          
O        O      0.043750000000     0.725800000000     0.250000000000     0          
O        O      0.049600000000     0.774800000000     0.289150000000     0          
O        O      0.000000000000     0.709250000000     0.297700000000     0          
O        O      0.399500000000     0.799050000000     0.068450000000     0          
O        O      0.373650000000     0.828250000000     0.031000000000     0          
O        O      0.000000000000     0.615500000000     0.000000000000     0          
O        O      0.067150000000     0.634300000000     0.000000000000     0          
T        Si     0.039000000000     0.645350000000     0.372450000000     0          
T        Si     0.355100000000     0.779600000000     0.157200000000     0          
T        Si     0.040400000000     0.735150000000     0.398750000000     0          
T        Si     0.039850000000     0.734450000000     0.286250000000     0          
T        Si     0.371750000000     0.812650000000     0.065800000000     0          
T        Si     0.039550000000     0.648250000000     0.000000000000     0          
O        O      0.435550000000     0.564500000000     0.370200000000     0          
O        O      0.374500000000     0.553350000000     0.349400000000     0          
O        O      0.383800000000     0.500000000000     0.361800000000     0          
O        O      0.381100000000     0.538200000000     0.408300000000     0          
O        O      0.065000000000     0.824500000000     0.131400000000     0          
O        O      0.066250000000     0.838100000000     0.192050000000     0          
O        O      0.116800000000     0.883200000000     0.154850000000     0          
O        O      0.332700000000     0.552100000000     0.427600000000     0          
O        O      0.291600000000     0.500000000000     0.389950000000     0          
O        O      0.272400000000     0.544850000000     0.408900000000     0          
O        O      0.317950000000     0.543750000000     0.250000000000     0          
O        O      0.274800000000     0.549600000000     0.289150000000     0          
O        O      0.290750000000     0.500000000000     0.297700000000     0          
O        O      0.100450000000     0.899500000000     0.068450000000     0          
O        O      0.045400000000     0.873650000000     0.031000000000     0          
O        O      0.384500000000     0.500000000000     0.000000000000     0          
O        O      0.432850000000     0.567150000000     0.000000000000     0          
T        Si     0.393650000000     0.539000000000     0.372450000000     0          
T        Si     0.075500000000     0.855100000000     0.157200000000     0          
T        Si     0.305250000000     0.540400000000     0.398750000000     0          
T        Si     0.305400000000     0.539850000000     0.286250000000     0          
T        Si     0.059100000000     0.871750000000     0.065800000000     0          
T        Si     0.391300000000     0.539550000000     0.000000000000     0          
O        O      0.371050000000     0.935550000000     0.370200000000     0          
O        O      0.321150000000     0.874500000000     0.349400000000     0          
O        O      0.383800000000     0.883800000000     0.361800000000     0          
O        O      0.342900000000     0.881100000000     0.408300000000     0          
O        O      0.240500000000     0.565000000000     0.131400000000     0          
O        O      0.228150000000     0.566250000000     0.192050000000     0          
O        O      0.233600000000     0.616800000000     0.154850000000     0          
O        O      0.280600000000     0.832700000000     0.427600000000     0          
O        O      0.291600000000     0.791600000000     0.389950000000     0          
O        O      0.227550000000     0.772400000000     0.408900000000     0          
O        O      0.274200000000     0.817950000000     0.250000000000     0          
O        O      0.225200000000     0.774800000000     0.289150000000     0          
O        O      0.290750000000     0.790750000000     0.297700000000     0          
O        O      0.200950000000     0.600450000000     0.068450000000     0          
O        O      0.171750000000     0.545400000000     0.031000000000     0          
O        O      0.384500000000     0.884500000000     0.000000000000     0          
O        O      0.365700000000     0.932850000000     0.000000000000     0          
T        Si     0.354650000000     0.893650000000     0.372450000000     0          
T        Si     0.220400000000     0.575500000000     0.157200000000     0          
T        Si     0.264850000000     0.805250000000     0.398750000000     0          
T        Si     0.265550000000     0.805400000000     0.286250000000     0          
T        Si     0.187350000000     0.559100000000     0.065800000000     0          
T        Si     0.351750000000     0.891300000000     0.000000000000     0          
O        O      0.435500000000     0.871050000000     0.370200000000     0          
O        O      0.446650000000     0.821150000000     0.349400000000     0          
O        O      0.000000000000     0.883800000000     0.361800000000     0          
O        O      0.461800000000     0.842900000000     0.408300000000     0          
O        O      0.175500000000     0.740500000000     0.131400000000     0          
O        O      0.161900000000     0.728150000000     0.192050000000     0          
O        O      0.116800000000     0.733600000000     0.154850000000     0          
O        O      0.447900000000     0.780600000000     0.427600000000     0          
O        O      0.000000000000     0.791600000000     0.389950000000     0          
O        O      0.455150000000     0.727550000000     0.408900000000     0          
O        O      0.456250000000     0.774200000000     0.250000000000     0          
O        O      0.450400000000     0.725200000000     0.289150000000     0          
O        O      0.000000000000     0.790750000000     0.297700000000     0          
O        O      0.100500000000     0.700950000000     0.068450000000     0          
O        O      0.126350000000     0.671750000000     0.031000000000     0          
O        O      0.000000000000     0.884500000000     0.000000000000     0          
O        O      0.432850000000     0.865700000000     0.000000000000     0          
T        Si     0.461000000000     0.854650000000     0.372450000000     0          
T        Si     0.144900000000     0.720400000000     0.157200000000     0          
T        Si     0.459600000000     0.764850000000     0.398750000000     0          
T        Si     0.460150000000     0.765550000000     0.286250000000     0          
T        Si     0.128250000000     0.687350000000     0.065800000000     0          
T        Si     0.460450000000     0.851750000000     0.000000000000     0          
O        O      0.064450000000     0.935500000000     0.370200000000     0          
O        O      0.125500000000     0.946650000000     0.349400000000     0          
O        O      0.116200000000     0.500000000000     0.361800000000     0          
O        O      0.118900000000     0.961800000000     0.408300000000     0          
O        O      0.435000000000     0.675500000000     0.131400000000     0          
O        O      0.433750000000     0.661900000000     0.192050000000     0          
O        O      0.383200000000     0.616800000000     0.154850000000     0          
O        O      0.167300000000     0.947900000000     0.427600000000     0          
O        O      0.208400000000     0.500000000000     0.389950000000     0          
O        O      0.227600000000     0.955150000000     0.408900000000     0          
O        O      0.182050000000     0.956250000000     0.250000000000     0          
O        O      0.225200000000     0.950400000000     0.289150000000     0          
O        O      0.209250000000     0.500000000000     0.297700000000     0          
O        O      0.399550000000     0.600500000000     0.068450000000     0          
O        O      0.454600000000     0.626350000000     0.031000000000     0          
O        O      0.115500000000     0.500000000000     0.000000000000     0          
O        O      0.067150000000     0.932850000000     0.000000000000     0          
T        Si     0.106350000000     0.961000000000     0.372450000000     0          
T        Si     0.424500000000     0.644900000000     0.157200000000     0          
T        Si     0.194750000000     0.959600000000     0.398750000000     0          
T        Si     0.194600000000     0.960150000000     0.286250000000     0          
T        Si     0.440900000000     0.628250000000     0.065800000000     0          
T        Si     0.108700000000     0.960450000000     0.000000000000     0          
O        O      0.128950000000     0.564450000000     0.370200000000     0          
O        O      0.178850000000     0.625500000000     0.349400000000     0          
O        O      0.116200000000     0.616200000000     0.361800000000     0          
O        O      0.157100000000     0.618900000000     0.408300000000     0          
O        O      0.259500000000     0.935000000000     0.131400000000     0          
O        O      0.271850000000     0.933750000000     0.192050000000     0          
O        O      0.266400000000     0.883200000000     0.154850000000     0          
O        O      0.219400000000     0.667300000000     0.427600000000     0          
O        O      0.208400000000     0.708400000000     0.389950000000     0          
O        O      0.272450000000     0.727600000000     0.408900000000     0          
O        O      0.225800000000     0.682050000000     0.250000000000     0          
O        O      0.274800000000     0.725200000000     0.289150000000     0          
O        O      0.209250000000     0.709250000000     0.297700000000     0          
O        O      0.299050000000     0.899550000000     0.068450000000     0          
O        O      0.328250000000     0.954600000000     0.031000000000     0          
O        O      0.115500000000     0.615500000000     0.000000000000     0          
O        O      0.134300000000     0.567150000000     0.000000000000     0          
T        Si     0.145350000000     0.606350000000     0.372450000000     0          
T        Si     0.279600000000     0.924500000000     0.157200000000     0          
T        Si     0.235150000000     0.694750000000     0.398750000000     0          
T        Si     0.234450000000     0.694600000000     0.286250000000     0          
T        Si     0.312650000000     0.940900000000     0.065800000000     0          
T        Si     0.148250000000     0.608700000000     0.000000000000     0          
O        O      0.371050000000     0.935500000000     0.129800000000     0          
O        O      0.321150000000     0.946650000000     0.150600000000     0          
O        O      0.383800000000     0.500000000000     0.138200000000     0          
O        O      0.342900000000     0.961800000000     0.091700000000     0          
O        O      0.240500000000     0.675500000000     0.368600000000     0          
O        O      0.228150000000     0.661900000000     0.307950000000     0          
O        O      0.233600000000     0.616800000000     0.345150000000     0          
O        O      0.280600000000     0.947900000000     0.072400000000     0          
O        O      0.291600000000     0.500000000000     0.110050000000     0          
O        O      0.227550000000     0.955150000000     0.091100000000     0          
O        O      0.274200000000     0.956250000000     0.250000000000     0          
O        O      0.225200000000     0.950400000000     0.210850000000     0          
O        O      0.290750000000     0.500000000000     0.202300000000     0          
O        O      0.200950000000     0.600500000000     0.431550000000     0          
O        O      0.171750000000     0.626350000000     0.469000000000     0          
T        Si     0.354650000000     0.961000000000     0.127550000000     0          
T        Si     0.220400000000     0.644900000000     0.342800000000     0          
T        Si     0.264850000000     0.959600000000     0.101250000000     0          
T        Si     0.265550000000     0.960150000000     0.213750000000     0          
T        Si     0.187350000000     0.628250000000     0.434200000000     0          
T        Si     0.351750000000     0.960450000000     0.000000000000     0          
O        O      0.435550000000     0.871050000000     0.129800000000     0          
O        O      0.374500000000     0.821150000000     0.150600000000     0          
O        O      0.383800000000     0.883800000000     0.138200000000     0          
O        O      0.381100000000     0.842900000000     0.091700000000     0          
O        O      0.065000000000     0.740500000000     0.368600000000     0          
O        O      0.066250000000     0.728150000000     0.307950000000     0          
O        O      0.116800000000     0.733600000000     0.345150000000     0          
O        O      0.332700000000     0.780600000000     0.072400000000     0          
O        O      0.291600000000     0.791600000000     0.110050000000     0          
O        O      0.272400000000     0.727550000000     0.091100000000     0          
O        O      0.317950000000     0.774200000000     0.250000000000     0          
O        O      0.274800000000     0.725200000000     0.210850000000     0          
O        O      0.290750000000     0.790750000000     0.202300000000     0          
O        O      0.100450000000     0.700950000000     0.431550000000     0          
O        O      0.045400000000     0.671750000000     0.469000000000     0          
T        Si     0.393650000000     0.854650000000     0.127550000000     0          
T        Si     0.075500000000     0.720400000000     0.342800000000     0          
T        Si     0.305250000000     0.764850000000     0.101250000000     0          
T        Si     0.305400000000     0.765550000000     0.213750000000     0          
T        Si     0.059100000000     0.687350000000     0.434200000000     0          
T        Si     0.391300000000     0.851750000000     0.000000000000     0          
O        O      0.064500000000     0.935550000000     0.129800000000     0          
O        O      0.053350000000     0.874500000000     0.150600000000     0          
O        O      0.000000000000     0.883800000000     0.138200000000     0          
O        O      0.038200000000     0.881100000000     0.091700000000     0          
O        O      0.324500000000     0.565000000000     0.368600000000     0          
O        O      0.338100000000     0.566250000000     0.307950000000     0          
O        O      0.383200000000     0.616800000000     0.345150000000     0          
O        O      0.052100000000     0.832700000000     0.072400000000     0          
O        O      0.000000000000     0.791600000000     0.110050000000     0          
O        O      0.044850000000     0.772400000000     0.091100000000     0          
O        O      0.043750000000     0.817950000000     0.250000000000     0          
O        O      0.049600000000     0.774800000000     0.210850000000     0          
O        O      0.000000000000     0.790750000000     0.202300000000     0          
O        O      0.399500000000     0.600450000000     0.431550000000     0          
O        O      0.373650000000     0.545400000000     0.469000000000     0          
T        Si     0.039000000000     0.893650000000     0.127550000000     0          
T        Si     0.355100000000     0.575500000000     0.342800000000     0          
T        Si     0.040400000000     0.805250000000     0.101250000000     0          
T        Si     0.039850000000     0.805400000000     0.213750000000     0          
T        Si     0.371750000000     0.559100000000     0.434200000000     0          
T        Si     0.039550000000     0.891300000000     0.000000000000     0          
O        O      0.128950000000     0.564500000000     0.129800000000     0          
O        O      0.178850000000     0.553350000000     0.150600000000     0          
O        O      0.116200000000     0.500000000000     0.138200000000     0          
O        O      0.157100000000     0.538200000000     0.091700000000     0          
O        O      0.259500000000     0.824500000000     0.368600000000     0          
O        O      0.271850000000     0.838100000000     0.307950000000     0          
O        O      0.266400000000     0.883200000000     0.345150000000     0          
O        O      0.219400000000     0.552100000000     0.072400000000     0          
O        O      0.208400000000     0.500000000000     0.110050000000     0          
O        O      0.272450000000     0.544850000000     0.091100000000     0          
O        O      0.225800000000     0.543750000000     0.250000000000     0          
O        O      0.274800000000     0.549600000000     0.210850000000     0          
O        O      0.209250000000     0.500000000000     0.202300000000     0          
O        O      0.299050000000     0.899500000000     0.431550000000     0          
O        O      0.328250000000     0.873650000000     0.469000000000     0          
T        Si     0.145350000000     0.539000000000     0.127550000000     0          
T        Si     0.279600000000     0.855100000000     0.342800000000     0          
T        Si     0.235150000000     0.540400000000     0.101250000000     0          
T        Si     0.234450000000     0.539850000000     0.213750000000     0          
T        Si     0.312650000000     0.871750000000     0.434200000000     0          
T        Si     0.148250000000     0.539550000000     0.000000000000     0          
O        O      0.064450000000     0.628950000000     0.129800000000     0          
O        O      0.125500000000     0.678850000000     0.150600000000     0          
O        O      0.116200000000     0.616200000000     0.138200000000     0          
O        O      0.118900000000     0.657100000000     0.091700000000     0          
O        O      0.435000000000     0.759500000000     0.368600000000     0          
O        O      0.433750000000     0.771850000000     0.307950000000     0          
O        O      0.383200000000     0.766400000000     0.345150000000     0          
O        O      0.167300000000     0.719400000000     0.072400000000     0          
O        O      0.208400000000     0.708400000000     0.110050000000     0          
O        O      0.227600000000     0.772450000000     0.091100000000     0          
O        O      0.182050000000     0.725800000000     0.250000000000     0          
O        O      0.225200000000     0.774800000000     0.210850000000     0          
O        O      0.209250000000     0.709250000000     0.202300000000     0          
O        O      0.399550000000     0.799050000000     0.431550000000     0          
O        O      0.454600000000     0.828250000000     0.469000000000     0          
T        Si     0.106350000000     0.645350000000     0.127550000000     0          
T        Si     0.424500000000     0.779600000000     0.342800000000     0          
T        Si     0.194750000000     0.735150000000     0.101250000000     0          
T        Si     0.194600000000     0.734450000000     0.213750000000     0          
T        Si     0.440900000000     0.812650000000     0.434200000000     0          
T        Si     0.108700000000     0.648250000000     0.000000000000     0          
O        O      0.435500000000     0.564450000000     0.129800000000     0          
O        O      0.446650000000     0.625500000000     0.150600000000     0          
O        O      0.000000000000     0.616200000000     0.138200000000     0          
O        O      0.461800000000     0.618900000000     0.091700000000     0          
O        O      0.175500000000     0.935000000000     0.368600000000     0          
O        O      0.161900000000     0.933750000000     0.307950000000     0          
O        O      0.116800000000     0.883200000000     0.345150000000     0          
O        O      0.447900000000     0.667300000000     0.072400000000     0          
O        O      0.000000000000     0.708400000000     0.110050000000     0          
O        O      0.455150000000     0.727600000000     0.091100000000     0          
O        O      0.456250000000     0.682050000000     0.250000000000     0          
O        O      0.450400000000     0.725200000000     0.210850000000     0          
O        O      0.000000000000     0.709250000000     0.202300000000     0          
O        O      0.100500000000     0.899550000000     0.431550000000     0          
O        O      0.126350000000     0.954600000000     0.469000000000     0          
T        Si     0.461000000000     0.606350000000     0.127550000000     0          
T        Si     0.144900000000     0.924500000000     0.342800000000     0          
T        Si     0.459600000000     0.694750000000     0.101250000000     0          
T        Si     0.460150000000     0.694600000000     0.213750000000     0          
T        Si     0.128250000000     0.940900000000     0.434200000000     0          
T        Si     0.460450000000     0.608700000000     0.000000000000     0          
O        O      0.446650000000     0.821150000000     0.150600000000     0          
O        O      0.461800000000     0.842900000000     0.091700000000     0          
O        O      0.175500000000     0.740500000000     0.368600000000     0          
O        O      0.161900000000     0.728150000000     0.307950000000     0          
O        O      0.447900000000     0.780600000000     0.072400000000     0          
O        O      0.126350000000     0.671750000000     0.469000000000     0          
T        Si     0.461000000000     0.854650000000     0.127550000000     0          
T        Si     0.144900000000     0.720400000000     0.342800000000     0          
T        Si     0.459600000000     0.764850000000     0.101250000000     0          
T        Si     0.460150000000     0.765550000000     0.213750000000     0          
T        Si     0.128250000000     0.687350000000     0.434200000000     0          
O        O      0.125500000000     0.946650000000     0.150600000000     0          
O        O      0.118900000000     0.961800000000     0.091700000000     0          
O        O      0.435000000000     0.675500000000     0.368600000000     0          
O        O      0.433750000000     0.661900000000     0.307950000000     0          
O        O      0.167300000000     0.947900000000     0.072400000000     0          
O        O      0.454600000000     0.626350000000     0.469000000000     0          
T        Si     0.106350000000     0.961000000000     0.127550000000     0          
T        Si     0.424500000000     0.644900000000     0.342800000000     0          
T        Si     0.194750000000     0.959600000000     0.101250000000     0          
T        Si     0.194600000000     0.960150000000     0.213750000000     0          
T        Si     0.440900000000     0.628250000000     0.434200000000     0          
O        O      0.178850000000     0.625500000000     0.150600000000     0          
O        O      0.157100000000     0.618900000000     0.091700000000     0          
O        O      0.259500000000     0.935000000000     0.368600000000     0          
O        O      0.271850000000     0.933750000000     0.307950000000     0          
O        O      0.219400000000     0.667300000000     0.072400000000     0          
O        O      0.328250000000     0.954600000000     0.469000000000     0          
T        Si     0.145350000000     0.606350000000     0.127550000000     0          
T        Si     0.279600000000     0.924500000000     0.342800000000     0          
T        Si     0.235150000000     0.694750000000     0.101250000000     0          
T        Si     0.234450000000     0.694600000000     0.213750000000     0          
T        Si     0.312650000000     0.940900000000     0.434200000000     0          
O        O      0.053350000000     0.678850000000     0.150600000000     0          
O        O      0.038200000000     0.657100000000     0.091700000000     0          
O        O      0.324500000000     0.759500000000     0.368600000000     0          
O        O      0.338100000000     0.771850000000     0.307950000000     0          
O        O      0.052100000000     0.719400000000     0.072400000000     0          
O        O      0.373650000000     0.828250000000     0.469000000000     0          
T        Si     0.039000000000     0.645350000000     0.127550000000     0          
T        Si     0.355100000000     0.779600000000     0.342800000000     0          
T        Si     0.040400000000     0.735150000000     0.101250000000     0          
T        Si     0.039850000000     0.734450000000     0.213750000000     0          
T        Si     0.371750000000     0.812650000000     0.434200000000     0          
O        O      0.374500000000     0.553350000000     0.150600000000     0          
O        O      0.381100000000     0.538200000000     0.091700000000     0          
O        O      0.065000000000     0.824500000000     0.368600000000     0          
O        O      0.066250000000     0.838100000000     0.307950000000     0          
O        O      0.332700000000     0.552100000000     0.072400000000     0          
O        O      0.045400000000     0.873650000000     0.469000000000     0          
T        Si     0.393650000000     0.539000000000     0.127550000000     0          
T        Si     0.075500000000     0.855100000000     0.342800000000     0          
T        Si     0.305250000000     0.540400000000     0.101250000000     0          
T        Si     0.305400000000     0.539850000000     0.213750000000     0          
T        Si     0.059100000000     0.871750000000     0.434200000000     0          
O        O      0.321150000000     0.874500000000     0.150600000000     0          
O        O      0.342900000000     0.881100000000     0.091700000000     0          
O        O      0.240500000000     0.565000000000     0.368600000000     0          
O        O      0.228150000000     0.566250000000     0.307950000000     0          
O        O      0.280600000000     0.832700000000     0.072400000000     0          
O        O      0.171750000000     0.545400000000     0.469000000000     0          
T        Si     0.354650000000     0.893650000000     0.127550000000     0          
T        Si     0.220400000000     0.575500000000     0.342800000000     0          
T        Si     0.264850000000     0.805250000000     0.101250000000     0          
T        Si     0.265550000000     0.805400000000     0.213750000000     0          
T        Si     0.187350000000     0.559100000000     0.434200000000     0          
O        O      0.178850000000     0.553350000000     0.349400000000     0          
O        O      0.157100000000     0.538200000000     0.408300000000     0          
O        O      0.259500000000     0.824500000000     0.131400000000     0          
O        O      0.271850000000     0.838100000000     0.192050000000     0          
O        O      0.219400000000     0.552100000000     0.427600000000     0          
O        O      0.328250000000     0.873650000000     0.031000000000     0          
T        Si     0.145350000000     0.539000000000     0.372450000000     0          
T        Si     0.279600000000     0.855100000000     0.157200000000     0          
T        Si     0.235150000000     0.540400000000     0.398750000000     0          
T        Si     0.234450000000     0.539850000000     0.286250000000     0          
T        Si     0.312650000000     0.871750000000     0.065800000000     0          
O        O      0.125500000000     0.678850000000     0.349400000000     0          
O        O      0.118900000000     0.657100000000     0.408300000000     0          
O        O      0.435000000000     0.759500000000     0.131400000000     0          
O        O      0.433750000000     0.771850000000     0.192050000000     0          
O        O      0.167300000000     0.719400000000     0.427600000000     0          
O        O      0.454600000000     0.828250000000     0.031000000000     0          
T        Si     0.106350000000     0.645350000000     0.372450000000     0          
T        Si     0.424500000000     0.779600000000     0.157200000000     0          
T        Si     0.194750000000     0.735150000000     0.398750000000     0          
T        Si     0.194600000000     0.734450000000     0.286250000000     0          
T        Si     0.440900000000     0.812650000000     0.065800000000     0          
O        O      0.446650000000     0.625500000000     0.349400000000     0          
O        O      0.461800000000     0.618900000000     0.408300000000     0          
O        O      0.175500000000     0.935000000000     0.131400000000     0          
O        O      0.161900000000     0.933750000000     0.192050000000     0          
O        O      0.447900000000     0.667300000000     0.427600000000     0          
O        O      0.126350000000     0.954600000000     0.031000000000     0          
T        Si     0.461000000000     0.606350000000     0.372450000000     0          
T        Si     0.144900000000     0.924500000000     0.157200000000     0          
T        Si     0.459600000000     0.694750000000     0.398750000000     0          
T        Si     0.460150000000     0.694600000000     0.286250000000     0          
T        Si     0.128250000000     0.940900000000     0.065800000000     0          
O        O      0.321150000000     0.946650000000     0.349400000000     0          
O        O      0.342900000000     0.961800000000     0.408300000000     0          
O        O      0.240500000000     0.675500000000     0.131400000000     0          
O        O      0.228150000000     0.661900000000     0.192050000000     0          
O        O      0.280600000000     0.947900000000     0.427600000000     0          
O        O      0.171750000000     0.626350000000     0.031000000000     0          
T        Si     0.354650000000     0.961000000000     0.372450000000     0          
T        Si     0.220400000000     0.644900000000     0.157200000000     0          
T        Si     0.264850000000     0.959600000000     0.398750000000     0          
T        Si     0.265550000000     0.960150000000     0.286250000000     0          
T        Si     0.187350000000     0.628250000000     0.065800000000     0          
O        O      0.374500000000     0.821150000000     0.349400000000     0          
O        O      0.381100000000     0.842900000000     0.408300000000     0          
O        O      0.065000000000     0.740500000000     0.131400000000     0          
O        O      0.066250000000     0.728150000000     0.192050000000     0          
O        O      0.332700000000     0.780600000000     0.427600000000     0          
O        O      0.045400000000     0.671750000000     0.031000000000     0          
T        Si     0.393650000000     0.854650000000     0.372450000000     0          
T        Si     0.075500000000     0.720400000000     0.157200000000     0          
T        Si     0.305250000000     0.764850000000     0.398750000000     0          
T        Si     0.305400000000     0.765550000000     0.286250000000     0          
T        Si     0.059100000000     0.687350000000     0.065800000000     0          
O        O      0.053350000000     0.874500000000     0.349400000000     0          
O        O      0.038200000000     0.881100000000     0.408300000000     0          
O        O      0.324500000000     0.565000000000     0.131400000000     0          
O        O      0.338100000000     0.566250000000     0.192050000000     0          
O        O      0.052100000000     0.832700000000     0.427600000000     0          
O        O      0.373650000000     0.545400000000     0.031000000000     0          
T        Si     0.039000000000     0.893650000000     0.372450000000     0          
T        Si     0.355100000000     0.575500000000     0.157200000000     0          
T        Si     0.040400000000     0.805250000000     0.398750000000     0          
T        Si     0.039850000000     0.805400000000     0.286250000000     0          
T        Si     0.371750000000     0.559100000000     0.065800000000     0          
O        O      0.064500000000     0.628950000000     0.870200000000     0          
O        O      0.053350000000     0.678850000000     0.849400000000     0          
O        O      0.000000000000     0.616200000000     0.861800000000     0          
O        O      0.038200000000     0.657100000000     0.908300000000     0          
O        O      0.324500000000     0.759500000000     0.631400000000     0          
O        O      0.338100000000     0.771850000000     0.692050000000     0          
O        O      0.383200000000     0.766400000000     0.654850000000     0          
O        O      0.052100000000     0.719400000000     0.927600000000     0          
O        O      0.000000000000     0.708400000000     0.889950000000     0          
O        O      0.044850000000     0.772450000000     0.908900000000     0          
O        O      0.043750000000     0.725800000000     0.750000000000     0          
O        O      0.049600000000     0.774800000000     0.789150000000     0          
O        O      0.000000000000     0.709250000000     0.797700000000     0          
O        O      0.399500000000     0.799050000000     0.568450000000     0          
O        O      0.373650000000     0.828250000000     0.531000000000     0          
O        O      0.000000000000     0.615500000000     0.500000000000     0          
O        O      0.067150000000     0.634300000000     0.500000000000     0          
T        Si     0.039000000000     0.645350000000     0.872450000000     0          
T        Si     0.355100000000     0.779600000000     0.657200000000     0          
T        Si     0.040400000000     0.735150000000     0.898750000000     0          
T        Si     0.039850000000     0.734450000000     0.786250000000     0          
T        Si     0.371750000000     0.812650000000     0.565800000000     0          
T        Si     0.039550000000     0.648250000000     0.500000000000     0          
O        O      0.435550000000     0.564500000000     0.870200000000     0          
O        O      0.374500000000     0.553350000000     0.849400000000     0          
O        O      0.383800000000     0.500000000000     0.861800000000     0          
O        O      0.381100000000     0.538200000000     0.908300000000     0          
O        O      0.065000000000     0.824500000000     0.631400000000     0          
O        O      0.066250000000     0.838100000000     0.692050000000     0          
O        O      0.116800000000     0.883200000000     0.654850000000     0          
O        O      0.332700000000     0.552100000000     0.927600000000     0          
O        O      0.291600000000     0.500000000000     0.889950000000     0          
O        O      0.272400000000     0.544850000000     0.908900000000     0          
O        O      0.317950000000     0.543750000000     0.750000000000     0          
O        O      0.274800000000     0.549600000000     0.789150000000     0          
O        O      0.290750000000     0.500000000000     0.797700000000     0          
O        O      0.100450000000     0.899500000000     0.568450000000     0          
O        O      0.045400000000     0.873650000000     0.531000000000     0          
O        O      0.384500000000     0.500000000000     0.500000000000     0          
O        O      0.432850000000     0.567150000000     0.500000000000     0          
T        Si     0.393650000000     0.539000000000     0.872450000000     0          
T        Si     0.075500000000     0.855100000000     0.657200000000     0          
T        Si     0.305250000000     0.540400000000     0.898750000000     0          
T        Si     0.305400000000     0.539850000000     0.786250000000     0          
T        Si     0.059100000000     0.871750000000     0.565800000000     0          
T        Si     0.391300000000     0.539550000000     0.500000000000     0          
O        O      0.371050000000     0.935550000000     0.870200000000     0          
O        O      0.321150000000     0.874500000000     0.849400000000     0          
O        O      0.383800000000     0.883800000000     0.861800000000     0          
O        O      0.342900000000     0.881100000000     0.908300000000     0          
O        O      0.240500000000     0.565000000000     0.631400000000     0          
O        O      0.228150000000     0.566250000000     0.692050000000     0          
O        O      0.233600000000     0.616800000000     0.654850000000     0          
O        O      0.280600000000     0.832700000000     0.927600000000     0          
O        O      0.291600000000     0.791600000000     0.889950000000     0          
O        O      0.227550000000     0.772400000000     0.908900000000     0          
O        O      0.274200000000     0.817950000000     0.750000000000     0          
O        O      0.225200000000     0.774800000000     0.789150000000     0          
O        O      0.290750000000     0.790750000000     0.797700000000     0          
O        O      0.200950000000     0.600450000000     0.568450000000     0          
O        O      0.171750000000     0.545400000000     0.531000000000     0          
O        O      0.384500000000     0.884500000000     0.500000000000     0          
O        O      0.365700000000     0.932850000000     0.500000000000     0          
T        Si     0.354650000000     0.893650000000     0.872450000000     0          
T        Si     0.220400000000     0.575500000000     0.657200000000     0          
T        Si     0.264850000000     0.805250000000     0.898750000000     0          
T        Si     0.265550000000     0.805400000000     0.786250000000     0          
T        Si     0.187350000000     0.559100000000     0.565800000000     0          
T        Si     0.351750000000     0.891300000000     0.500000000000     0          
O        O      0.435500000000     0.871050000000     0.870200000000     0          
O        O      0.446650000000     0.821150000000     0.849400000000     0          
O        O      0.000000000000     0.883800000000     0.861800000000     0          
O        O      0.461800000000     0.842900000000     0.908300000000     0          
O        O      0.175500000000     0.740500000000     0.631400000000     0          
O        O      0.161900000000     0.728150000000     0.692050000000     0          
O        O      0.116800000000     0.733600000000     0.654850000000     0          
O        O      0.447900000000     0.780600000000     0.927600000000     0          
O        O      0.000000000000     0.791600000000     0.889950000000     0          
O        O      0.455150000000     0.727550000000     0.908900000000     0          
O        O      0.456250000000     0.774200000000     0.750000000000     0          
O        O      0.450400000000     0.725200000000     0.789150000000     0          
O        O      0.000000000000     0.790750000000     0.797700000000     0          
O        O      0.100500000000     0.700950000000     0.568450000000     0          
O        O      0.126350000000     0.671750000000     0.531000000000     0          
O        O      0.000000000000     0.884500000000     0.500000000000     0          
O        O      0.432850000000     0.865700000000     0.500000000000     0          
T        Si     0.461000000000     0.854650000000     0.872450000000     0          
T        Si     0.144900000000     0.720400000000     0.657200000000     0          
T        Si     0.459600000000     0.764850000000     0.898750000000     0          
T        Si     0.460150000000     0.765550000000     0.786250000000     0          
T        Si     0.128250000000     0.687350000000     0.565800000000     0          
T        Si     0.460450000000     0.851750000000     0.500000000000     0          
O        O      0.064450000000     0.935500000000     0.870200000000     0          
O        O      0.125500000000     0.946650000000     0.849400000000     0          
O        O      0.116200000000     0.500000000000     0.861800000000     0          
O        O      0.118900000000     0.961800000000     0.908300000000     0          
O        O      0.435000000000     0.675500000000     0.631400000000     0          
O        O      0.433750000000     0.661900000000     0.692050000000     0          
O        O      0.383200000000     0.616800000000     0.654850000000     0          
O        O      0.167300000000     0.947900000000     0.927600000000     0          
O        O      0.208400000000     0.500000000000     0.889950000000     0          
O        O      0.227600000000     0.955150000000     0.908900000000     0          
O        O      0.182050000000     0.956250000000     0.750000000000     0          
O        O      0.225200000000     0.950400000000     0.789150000000     0          
O        O      0.209250000000     0.500000000000     0.797700000000     0          
O        O      0.399550000000     0.600500000000     0.568450000000     0          
O        O      0.454600000000     0.626350000000     0.531000000000     0          
O        O      0.115500000000     0.500000000000     0.500000000000     0          
O        O      0.067150000000     0.932850000000     0.500000000000     0          
T        Si     0.106350000000     0.961000000000     0.872450000000     0          
T        Si     0.424500000000     0.644900000000     0.657200000000     0          
T        Si     0.194750000000     0.959600000000     0.898750000000     0          
T        Si     0.194600000000     0.960150000000     0.786250000000     0          
T        Si     0.440900000000     0.628250000000     0.565800000000     0          
T        Si     0.108700000000     0.960450000000     0.500000000000     0          
O        O      0.128950000000     0.564450000000     0.870200000000     0          
O        O      0.178850000000     0.625500000000     0.849400000000     0          
O        O      0.116200000000     0.616200000000     0.861800000000     0          
O        O      0.157100000000     0.618900000000     0.908300000000     0          
O        O      0.259500000000     0.935000000000     0.631400000000     0          
O        O      0.271850000000     0.933750000000     0.692050000000     0          
O        O      0.266400000000     0.883200000000     0.654850000000     0          
O        O      0.219400000000     0.667300000000     0.927600000000     0          
O        O      0.208400000000     0.708400000000     0.889950000000     0          
O        O      0.272450000000     0.727600000000     0.908900000000     0          
O        O      0.225800000000     0.682050000000     0.750000000000     0          
O        O      0.274800000000     0.725200000000     0.789150000000     0          
O        O      0.209250000000     0.709250000000     0.797700000000     0          
O        O      0.299050000000     0.899550000000     0.568450000000     0          
O        O      0.328250000000     0.954600000000     0.531000000000     0          
O        O      0.115500000000     0.615500000000     0.500000000000     0          
O        O      0.134300000000     0.567150000000     0.500000000000     0          
T        Si     0.145350000000     0.606350000000     0.872450000000     0          
T        Si     0.279600000000     0.924500000000     0.657200000000     0          
T        Si     0.235150000000     0.694750000000     0.898750000000     0          
T        Si     0.234450000000     0.694600000000     0.786250000000     0          
T        Si     0.312650000000     0.940900000000     0.565800000000     0          
T        Si     0.148250000000     0.608700000000     0.500000000000     0          
O        O      0.371050000000     0.935500000000     0.629800000000     0          
O        O      0.321150000000     0.946650000000     0.650600000000     0          
O        O      0.383800000000     0.500000000000     0.638200000000     0          
O        O      0.342900000000     0.961800000000     0.591700000000     0          
O        O      0.240500000000     0.675500000000     0.868600000000     0          
O        O      0.228150000000     0.661900000000     0.807950000000     0          
O        O      0.233600000000     0.616800000000     0.845150000000     0          
O        O      0.280600000000     0.947900000000     0.572400000000     0          
O        O      0.291600000000     0.500000000000     0.610050000000     0          
O        O      0.227550000000     0.955150000000     0.591100000000     0          
O        O      0.274200000000     0.956250000000     0.750000000000     0          
O        O      0.225200000000     0.950400000000     0.710850000000     0          
O        O      0.290750000000     0.500000000000     0.702300000000     0          
O        O      0.200950000000     0.600500000000     0.931550000000     0          
O        O      0.171750000000     0.626350000000     0.969000000000     0          
T        Si     0.354650000000     0.961000000000     0.627550000000     0          
T        Si     0.220400000000     0.644900000000     0.842800000000     0          
T        Si     0.264850000000     0.959600000000     0.601250000000     0          
T        Si     0.265550000000     0.960150000000     0.713750000000     0          
T        Si     0.187350000000     0.628250000000     0.934200000000     0          
T        Si     0.351750000000     0.960450000000     0.500000000000     0          
O        O      0.435550000000     0.871050000000     0.629800000000     0          
O        O      0.374500000000     0.821150000000     0.650600000000     0          
O        O      0.383800000000     0.883800000000     0.638200000000     0          
O        O      0.381100000000     0.842900000000     0.591700000000     0          
O        O      0.065000000000     0.740500000000     0.868600000000     0          
O        O      0.066250000000     0.728150000000     0.807950000000     0          
O        O      0.116800000000     0.733600000000     0.845150000000     0          
O        O      0.332700000000     0.780600000000     0.572400000000     0          
O        O      0.291600000000     0.791600000000     0.610050000000     0          
O        O      0.272400000000     0.727550000000     0.591100000000     0          
O        O      0.317950000000     0.774200000000     0.750000000000     0          
O        O      0.274800000000     0.725200000000     0.710850000000     0          
O        O      0.290750000000     0.790750000000     0.702300000000     0          
O        O      0.100450000000     0.700950000000     0.931550000000     0          
O        O      0.045400000000     0.671750000000     0.969000000000     0          
T        Si     0.393650000000     0.854650000000     0.627550000000     0          
T        Si     0.075500000000     0.720400000000     0.842800000000     0          
T        Si     0.305250000000     0.764850000000     0.601250000000     0          
T        Si     0.305400000000     0.765550000000     0.713750000000     0          
T        Si     0.059100000000     0.687350000000     0.934200000000     0          
T        Si     0.391300000000     0.851750000000     0.500000000000     0          
O        O      0.064500000000     0.935550000000     0.629800000000     0          
O        O      0.053350000000     0.874500000000     0.650600000000     0          
O        O      0.000000000000     0.883800000000     0.638200000000     0          
O        O      0.038200000000     0.881100000000     0.591700000000     0          
O        O      0.324500000000     0.565000000000     0.868600000000     0          
O        O      0.338100000000     0.566250000000     0.807950000000     0          
O        O      0.383200000000     0.616800000000     0.845150000000     0          
O        O      0.052100000000     0.832700000000     0.572400000000     0          
O        O      0.000000000000     0.791600000000     0.610050000000     0          
O        O      0.044850000000     0.772400000000     0.591100000000     0          
O        O      0.043750000000     0.817950000000     0.750000000000     0          
O        O      0.049600000000     0.774800000000     0.710850000000     0          
O        O      0.000000000000     0.790750000000     0.702300000000     0          
O        O      0.399500000000     0.600450000000     0.931550000000     0          
O        O      0.373650000000     0.545400000000     0.969000000000     0          
T        Si     0.039000000000     0.893650000000     0.627550000000     0          
T        Si     0.355100000000     0.575500000000     0.842800000000     0          
T        Si     0.040400000000     0.805250000000     0.601250000000     0          
T        Si     0.039850000000     0.805400000000     0.713750000000     0          
T        Si     0.371750000000     0.559100000000     0.934200000000     0          
T        Si     0.039550000000     0.891300000000     0.500000000000     0          
O        O      0.128950000000     0.564500000000     0.629800000000     0          
O        O      0.178850000000     0.553350000000     0.650600000000     0          
O        O      0.116200000000     0.500000000000     0.638200000000     0          
O        O      0.157100000000     0.538200000000     0.591700000000     0          
O        O      0.259500000000     0.824500000000     0.868600000000     0          
O        O      0.271850000000     0.838100000000     0.807950000000     0          
O        O      0.266400000000     0.883200000000     0.845150000000     0          
O        O      0.219400000000     0.552100000000     0.572400000000     0          
O        O      0.208400000000     0.500000000000     0.610050000000     0          
O        O      0.272450000000     0.544850000000     0.591100000000     0          
O        O      0.225800000000     0.543750000000     0.750000000000     0          
O        O      0.274800000000     0.549600000000     0.710850000000     0          
O        O      0.209250000000     0.500000000000     0.702300000000     0          
O        O      0.299050000000     0.899500000000     0.931550000000     0          
O        O      0.328250000000     0.873650000000     0.969000000000     0          
T        Si     0.145350000000     0.539000000000     0.627550000000     0          
T        Si     0.279600000000     0.855100000000     0.842800000000     0          
T        Si     0.235150000000     0.540400000000     0.601250000000     0          
T        Si     0.234450000000     0.539850000000     0.713750000000     0          
T        Si     0.312650000000     0.871750000000     0.934200000000     0          
T        Si     0.148250000000     0.539550000000     0.500000000000     0          
O        O      0.064450000000     0.628950000000     0.629800000000     0          
O        O      0.125500000000     0.678850000000     0.650600000000     0          
O        O      0.116200000000     0.616200000000     0.638200000000     0          
O        O      0.118900000000     0.657100000000     0.591700000000     0          
O        O      0.435000000000     0.759500000000     0.868600000000     0          
O        O      0.433750000000     0.771850000000     0.807950000000     0          
O        O      0.383200000000     0.766400000000     0.845150000000     0          
O        O      0.167300000000     0.719400000000     0.572400000000     0          
O        O      0.208400000000     0.708400000000     0.610050000000     0          
O        O      0.227600000000     0.772450000000     0.591100000000     0          
O        O      0.182050000000     0.725800000000     0.750000000000     0          
O        O      0.225200000000     0.774800000000     0.710850000000     0          
O        O      0.209250000000     0.709250000000     0.702300000000     0          
O        O      0.399550000000     0.799050000000     0.931550000000     0          
O        O      0.454600000000     0.828250000000     0.969000000000     0          
T        Si     0.106350000000     0.645350000000     0.627550000000     0          
T        Si     0.424500000000     0.779600000000     0.842800000000     0          
T        Si     0.194750000000     0.735150000000     0.601250000000     0          
T        Si     0.194600000000     0.734450000000     0.713750000000     0          
T        Si     0.440900000000     0.812650000000     0.934200000000     0          
T        Si     0.108700000000     0.648250000000     0.500000000000     0          
O        O      0.435500000000     0.564450000000     0.629800000000     0          
O        O      0.446650000000     0.625500000000     0.650600000000     0          
O        O      0.000000000000     0.616200000000     0.638200000000     0          
O        O      0.461800000000     0.618900000000     0.591700000000     0          
O        O      0.175500000000     0.935000000000     0.868600000000     0          
O        O      0.161900000000     0.933750000000     0.807950000000     0          
O        O      0.116800000000     0.883200000000     0.845150000000     0          
O        O      0.447900000000     0.667300000000     0.572400000000     0          
O        O      0.000000000000     0.708400000000     0.610050000000     0          
O        O      0.455150000000     0.727600000000     0.591100000000     0          
O        O      0.456250000000     0.682050000000     0.750000000000     0          
O        O      0.450400000000     0.725200000000     0.710850000000     0          
O        O      0.000000000000     0.709250000000     0.702300000000     0          
O        O      0.100500000000     0.899550000000     0.931550000000     0          
O        O      0.126350000000     0.954600000000     0.969000000000     0          
T        Si     0.461000000000     0.606350000000     0.627550000000     0          
T        Si     0.144900000000     0.924500000000     0.842800000000     0          
T        Si     0.459600000000     0.694750000000     0.601250000000     0          
T        Si     0.460150000000     0.694600000000     0.713750000000     0          
T        Si     0.128250000000     0.940900000000     0.934200000000     0          
T        Si     0.460450000000     0.608700000000     0.500000000000     0          
O        O      0.446650000000     0.821150000000     0.650600000000     0          
O        O      0.461800000000     0.842900000000     0.591700000000     0          
O        O      0.175500000000     0.740500000000     0.868600000000     0          
O        O      0.161900000000     0.728150000000     0.807950000000     0          
O        O      0.447900000000     0.780600000000     0.572400000000     0          
O        O      0.126350000000     0.671750000000     0.969000000000     0          
T        Si     0.461000000000     0.854650000000     0.627550000000     0          
T        Si     0.144900000000     0.720400000000     0.842800000000     0          
T        Si     0.459600000000     0.764850000000     0.601250000000     0          
T        Si     0.460150000000     0.765550000000     0.713750000000     0          
T        Si     0.128250000000     0.687350000000     0.934200000000     0          
O        O      0.125500000000     0.946650000000     0.650600000000     0          
O        O      0.118900000000     0.961800000000     0.591700000000     0          
O        O      0.435000000000     0.675500000000     0.868600000000     0          
O        O      0.433750000000     0.661900000000     0.807950000000     0          
O        O      0.167300000000     0.947900000000     0.572400000000     0          
O        O      0.454600000000     0.626350000000     0.969000000000     0          
T        Si     0.106350000000     0.961000000000     0.627550000000     0          
T        Si     0.424500000000     0.644900000000     0.842800000000     0          
T        Si     0.194750000000     0.959600000000     0.601250000000     0          
T        Si     0.194600000000     0.960150000000     0.713750000000     0          
T        Si     0.440900000000     0.628250000000     0.934200000000     0          
O        O      0.178850000000     0.625500000000     0.650600000000     0          
O        O      0.157100000000     0.618900000000     0.591700000000     0          
O        O      0.259500000000     0.935000000000     0.868600000000     0          
O        O      0.271850000000     0.933750000000     0.807950000000     0          
O        O      0.219400000000     0.667300000000     0.572400000000     0          
O        O      0.328250000000     0.954600000000     0.969000000000     0          
T        Si     0.145350000000     0.606350000000     0.627550000000     0          
T        Si     0.279600000000     0.924500000000     0.842800000000     0          
T        Si     0.235150000000     0.694750000000     0.601250000000     0          
T        Si     0.234450000000     0.694600000000     0.713750000000     0          
T        Si     0.312650000000     0.940900000000     0.934200000000     0          
O        O      0.053350000000     0.678850000000     0.650600000000     0          
O        O      0.038200000000     0.657100000000     0.591700000000     0          
O        O      0.324500000000     0.759500000000     0.868600000000     0          
O        O      0.338100000000     0.771850000000     0.807950000000     0          
O        O      0.052100000000     0.719400000000     0.572400000000     0          
O        O      0.373650000000     0.828250000000     0.969000000000     0          
T        Si     0.039000000000     0.645350000000     0.627550000000     0          
T        Si     0.355100000000     0.779600000000     0.842800000000     0          
T        Si     0.040400000000     0.735150000000     0.601250000000     0          
T        Si     0.039850000000     0.734450000000     0.713750000000     0          
T        Si     0.371750000000     0.812650000000     0.934200000000     0          
O        O      0.374500000000     0.553350000000     0.650600000000     0          
O        O      0.381100000000     0.538200000000     0.591700000000     0          
O        O      0.065000000000     0.824500000000     0.868600000000     0          
O        O      0.066250000000     0.838100000000     0.807950000000     0          
O        O      0.332700000000     0.552100000000     0.572400000000     0          
O        O      0.045400000000     0.873650000000     0.969000000000     0          
T        Si     0.393650000000     0.539000000000     0.627550000000     0          
T        Si     0.075500000000     0.855100000000     0.842800000000     0          
T        Si     0.305250000000     0.540400000000     0.601250000000     0          
T        Si     0.305400000000     0.539850000000     0.713750000000     0          
T        Si     0.059100000000     0.871750000000     0.934200000000     0          
O        O      0.321150000000     0.874500000000     0.650600000000     0          
O        O      0.342900000000     0.881100000000     0.591700000000     0          
O        O      0.240500000000     0.565000000000     0.868600000000     0          
O        O      0.228150000000     0.566250000000     0.807950000000     0          
O        O      0.280600000000     0.832700000000     0.572400000000     0          
O        O      0.171750000000     0.545400000000     0.969000000000     0          
T        Si     0.354650000000     0.893650000000     0.627550000000     0          
T        Si     0.220400000000     0.575500000000     0.842800000000     0          
T        Si     0.264850000000     0.805250000000     0.601250000000     0          
T        Si     0.265550000000     0.805400000000     0.713750000000     0          
T        Si     0.187350000000     0.559100000000     0.934200000000     0          
O        O      0.178850000000     0.553350000000     0.849400000000     0          
O        O      0.157100000000     0.538200000000     0.908300000000     0          
O        O      0.259500000000     0.824500000000     0.631400000000     0          
O        O      0.271850000000     0.838100000000     0.692050000000     0          
O        O      0.219400000000     0.552100000000     0.927600000000     0          
O        O      0.328250000000     0.873650000000     0.531000000000     0          
T        Si     0.145350000000     0.539000000000     0.872450000000     0          
T        Si     0.279600000000     0.855100000000     0.657200000000     0          
T        Si     0.235150000000     0.540400000000     0.898750000000     0          
T        Si     0.234450000000     0.539850000000     0.786250000000     0          
T        Si     0.312650000000     0.871750000000     0.565800000000     0          
O        O      0.125500000000     0.678850000000     0.849400000000     0          
O        O      0.118900000000     0.657100000000     0.908300000000     0          
O        O      0.435000000000     0.759500000000     0.631400000000     0          
O        O      0.433750000000     0.771850000000     0.692050000000     0          
O        O      0.167300000000     0.719400000000     0.927600000000     0          
O        O      0.454600000000     0.828250000000     0.531000000000     0          
T        Si     0.106350000000     0.645350000000     0.872450000000     0          
T        Si     0.424500000000     0.779600000000     0.657200000000     0          
T        Si     0.194750000000     0.735150000000     0.898750000000     0          
T        Si     0.194600000000     0.734450000000     0.786250000000     0          
T        Si     0.440900000000     0.812650000000     0.565800000000     0          
O        O      0.446650000000     0.625500000000     0.849400000000     0          
O        O      0.461800000000     0.618900000000     0.908300000000     0          
O        O      0.175500000000     0.935000000000     0.631400000000     0          
O        O      0.161900000000     0.933750000000     0.692050000000     0          
O        O      0.447900000000     0.667300000000     0.927600000000     0          
O        O      0.126350000000     0.954600000000     0.531000000000     0          
T        Si     0.461000000000     0.606350000000     0.872450000000     0          
T        Si     0.144900000000     0.924500000000     0.657200000000     0          
T        Si     0.459600000000     0.694750000000     0.898750000000     0          
T        Si     0.460150000000     0.694600000000     0.786250000000     0          
T        Si     0.128250000000     0.940900000000     0.565800000000     0          
O        O      0.321150000000     0.946650000000     0.849400000000     0          
O        O      0.342900000000     0.961800000000     0.908300000000     0          
O        O      0.240500000000     0.675500000000     0.631400000000     0          
O        O      0.228150000000     0.661900000000     0.692050000000     0          
O        O      0.280600000000     0.947900000000     0.927600000000     0          
O        O      0.171750000000     0.626350000000     0.531000000000     0          
T        Si     0.354650000000     0.961000000000     0.872450000000     0          
T        Si     0.220400000000     0.644900000000     0.657200000000     0          
T        Si     0.264850000000     0.959600000000     0.898750000000     0          
T        Si     0.265550000000     0.960150000000     0.786250000000     0          
T        Si     0.187350000000     0.628250000000     0.565800000000     0          
O        O      0.374500000000     0.821150000000     0.849400000000     0          
O        O      0.381100000000     0.842900000000     0.908300000000     0          
O        O      0.065000000000     0.740500000000     0.631400000000     0          
O        O      0.066250000000     0.728150000000     0.692050000000     0          
O        O      0.332700000000     0.780600000000     0.927600000000     0          
O        O      0.045400000000     0.671750000000     0.531000000000     0          
T        Si     0.393650000000     0.854650000000     0.872450000000     0          
T        Si     0.075500000000     0.720400000000     0.657200000000     0          
T        Si     0.305250000000     0.764850000000     0.898750000000     0          
T        Si     0.305400000000     0.765550000000     0.786250000000     0          
T        Si     0.059100000000     0.687350000000     0.565800000000     0          
O        O      0.053350000000     0.874500000000     0.849400000000     0          
O        O      0.038200000000     0.881100000000     0.908300000000     0          
O        O      0.324500000000     0.565000000000     0.631400000000     0          
O        O      0.338100000000     0.566250000000     0.692050000000     0          
O        O      0.052100000000     0.832700000000     0.927600000000     0          
O        O      0.373650000000     0.545400000000     0.531000000000     0          
T        Si     0.039000000000     0.893650000000     0.872450000000     0          
T        Si     0.355100000000     0.575500000000     0.657200000000     0          
T        Si     0.040400000000     0.805250000000     0.898750000000     0          
T        Si     0.039850000000     0.805400000000     0.786250000000     0          
T        Si     0.371750000000     0.559100000000     0.565800000000     0          
O        O      0.564500000000     0.128950000000     0.370200000000     0          
O        O      0.553350000000     0.178850000000     0.349400000000     0          
O        O      0.500000000000     0.116200000000     0.361800000000     0          
O        O      0.538200000000     0.157100000000     0.408300000000     0          
O        O      0.824500000000     0.259500000000     0.131400000000     0          
O        O      0.838100000000     0.271850000000     0.192050000000     0          
O        O      0.883200000000     0.266400000000     0.154850000000     0          
O        O      0.552100000000     0.219400000000     0.427600000000     0          
O        O      0.500000000000     0.208400000000     0.389950000000     0          
O        O      0.544850000000     0.272450000000     0.408900000000     0          
O        O      0.543750000000     0.225800000000     0.250000000000     0          
O        O      0.549600000000     0.274800000000     0.289150000000     0          
O        O      0.500000000000     0.209250000000     0.297700000000     0          
O        O      0.899500000000     0.299050000000     0.068450000000     0          
O        O      0.873650000000     0.328250000000     0.031000000000     0          
O        O      0.500000000000     0.115500000000     0.000000000000     0          
O        O      0.567150000000     0.134300000000     0.000000000000     0          
T        Si     0.539000000000     0.145350000000     0.372450000000     0          
T        Si     0.855100000000     0.279600000000     0.157200000000     0          
T        Si     0.540400000000     0.235150000000     0.398750000000     0          
T        Si     0.539850000000     0.234450000000     0.286250000000     0          
T        Si     0.871750000000     0.312650000000     0.065800000000     0          
T        Si     0.539550000000     0.148250000000     0.000000000000     0          
O        O      0.935550000000     0.064500000000     0.370200000000     0          
O        O      0.874500000000     0.053350000000     0.349400000000     0          
O        O      0.883800000000     0.000000000000     0.361800000000     0          
O        O      0.881100000000     0.038200000000     0.408300000000     0          
O        O      0.565000000000     0.324500000000     0.131400000000     0          
O        O      0.566250000000     0.338100000000     0.192050000000     0          
O        O      0.616800000000     0.383200000000     0.154850000000     0          
O        O      0.832700000000     0.052100000000     0.427600000000     0          
O        O      0.791600000000     0.000000000000     0.389950000000     0          
O        O      0.772400000000     0.044850000000     0.408900000000     0          
O        O      0.817950000000     0.043750000000     0.250000000000     0          
O        O      0.774800000000     0.049600000000     0.289150000000     0          
O        O      0.790750000000     0.000000000000     0.297700000000     0          
O        O      0.600450000000     0.399500000000     0.068450000000     0          
O        O      0.545400000000     0.373650000000     0.031000000000     0          
O        O      0.884500000000     0.000000000000     0.000000000000     0          
O        O      0.932850000000     0.067150000000     0.000000000000     0          
T        Si     0.893650000000     0.039000000000     0.372450000000     0          
T        Si     0.575500000000     0.355100000000     0.157200000000     0          
T        Si     0.805250000000     0.040400000000     0.398750000000     0          
T        Si     0.805400000000     0.039850000000     0.286250000000     0          
T        Si     0.559100000000     0.371750000000     0.065800000000     0          
T        Si     0.891300000000     0.039550000000     0.000000000000     0          
O        O      0.871050000000     0.435550000000     0.370200000000     0          
O        O      0.821150000000     0.374500000000     0.349400000000     0          
O        O      0.883800000000     0.383800000000     0.361800000000     0          
O        O      0.842900000000     0.381100000000     0.408300000000     0          
O        O      0.740500000000     0.065000000000     0.131400000000     0          
O        O      0.728150000000     0.066250000000     0.192050000000     0          
O        O      0.733600000000     0.116800000000     0.154850000000     0          
O        O      0.780600000000     0.332700000000     0.427600000000     0          
O        O      0.791600000000     0.291600000000     0.389950000000     0          
O        O      0.727550000000     0.272400000000     0.408900000000     0          
O        O      0.774200000000     0.317950000000     0.250000000000     0          
O        O      0.725200000000     0.274800000000     0.289150000000     0          
O        O      0.790750000000     0.290750000000     0.297700000000     0          
O        O      0.700950000000     0.100450000000     0.068450000000     0          
O        O      0.671750000000     0.045400000000     0.031000000000     0          
O        O      0.884500000000     0.384500000000     0.000000000000     0          
O        O      0.865700000000     0.432850000000     0.000000000000     0          
T        Si     0.854650000000     0.393650000000     0.372450000000     0          
T        Si     0.720400000000     0.075500000000     0.157200000000     0          
T        Si     0.764850000000     0.305250000000     0.398750000000     0          
T        Si     0.765550000000     0.305400000000     0.286250000000     0          
T        Si     0.687350000000     0.059100000000     0.065800000000     0          
T        Si     0.851750000000     0.391300000000     0.000000000000     0          
O        O      0.935500000000     0.371050000000     0.370200000000     0          
O        O      0.946650000000     0.321150000000     0.349400000000     0          
O        O      0.500000000000     0.383800000000     0.361800000000     0          
O        O      0.961800000000     0.342900000000     0.408300000000     0          
O        O      0.675500000000     0.240500000000     0.131400000000     0          
O        O      0.661900000000     0.228150000000     0.192050000000     0          
O        O      0.616800000000     0.233600000000     0.154850000000     0          
O        O      0.947900000000     0.280600000000     0.427600000000     0          
O        O      0.500000000000     0.291600000000     0.389950000000     0          
O        O      0.955150000000     0.227550000000     0.408900000000     0          
O        O      0.956250000000     0.274200000000     0.250000000000     0          
O        O      0.950400000000     0.225200000000     0.289150000000     0          
O        O      0.500000000000     0.290750000000     0.297700000000     0          
O        O      0.600500000000     0.200950000000     0.068450000000     0          
O        O      0.626350000000     0.171750000000     0.031000000000     0          
O        O      0.500000000000     0.384500000000     0.000000000000     0          
O        O      0.932850000000     0.365700000000     0.000000000000     0          
T        Si     0.961000000000     0.354650000000     0.372450000000     0          
T        Si     0.644900000000     0.220400000000     0.157200000000     0          
T        Si     0.959600000000     0.264850000000     0.398750000000     0          
T        Si     0.960150000000     0.265550000000     0.286250000000     0          
T        Si     0.628250000000     0.187350000000     0.065800000000     0          
T        Si     0.960450000000     0.351750000000     0.000000000000     0          
O        O      0.564450000000     0.435500000000     0.370200000000     0          
O        O      0.625500000000     0.446650000000     0.349400000000     0          
O        O      0.616200000000     0.000000000000     0.361800000000     0          
O        O      0.618900000000     0.461800000000     0.408300000000     0          
O        O      0.935000000000     0.175500000000     0.131400000000     0          
O        O      0.933750000000     0.161900000000     0.192050000000     0          
O        O      0.883200000000     0.116800000000     0.154850000000     0          
O        O      0.667300000000     0.447900000000     0.427600000000     0          
O        O      0.708400000000     0.000000000000     0.389950000000     0          
O        O      0.727600000000     0.455150000000     0.408900000000     0          
O        O      0.682050000000     0.456250000000     0.250000000000     0          
O        O      0.725200000000     0.450400000000     0.289150000000     0          
O        O      0.709250000000     0.000000000000     0.297700000000     0          
O        O      0.899550000000     0.100500000000     0.068450000000     0          
O        O      0.954600000000     0.126350000000     0.031000000000     0          
O        O      0.615500000000     0.000000000000     0.000000000000     0          
O        O      0.567150000000     0.432850000000     0.000000000000     0          
T        Si     0.606350000000     0.461000000000     0.372450000000     0          
T        Si     0.924500000000     0.144900000000     0.157200000000     0          
T        Si     0.694750000000     0.459600000000     0.398750000000     0          
T        Si     0.694600000000     0.460150000000     0.286250000000     0          
T        Si     0.940900000000     0.128250000000     0.065800000000     0          
T        Si     0.608700000000     0.460450000000     0.000000000000     0          
O        O      0.628950000000     0.064450000000     0.370200000000     0          
O        O      0.678850000000     0.125500000000     0.349400000000     0          
O        O      0.616200000000     0.116200000000     0.361800000000     0          
O        O      0.657100000000     0.118900000000     0.408300000000     0          
O        O      0.759500000000     0.435000000000     0.131400000000     0          
O        O      0.771850000000     0.433750000000     0.192050000000     0          
O        O      0.766400000000     0.383200000000     0.154850000000     0          
O        O      0.719400000000     0.167300000000     0.427600000000     0          
O        O      0.708400000000     0.208400000000     0.389950000000     0          
O        O      0.772450000000     0.227600000000     0.408900000000     0          
O        O      0.725800000000     0.182050000000     0.250000000000     0          
O        O      0.774800000000     0.225200000000     0.289150000000     0          
O        O      0.709250000000     0.209250000000     0.297700000000     0          
O        O      0.799050000000     0.399550000000     0.068450000000     0          
O        O      0.828250000000     0.454600000000     0.031000000000     0          
O        O      0.615500000000     0.115500000000     0.000000000000     0          
O        O      0.634300000000     0.067150000000     0.000000000000     0          
T        Si     0.645350000000     0.106350000000     0.372450000000     0          
T        Si     0.779600000000     0.424500000000     0.157200000000     0          
T        Si     0.735150000000     0.194750000000     0.398750000000     0          
T        Si     0.734450000000     0.194600000000     0.286250000000     0          
T        Si     0.812650000000     0.440900000000     0.065800000000     0          
T        Si     0.648250000000     0.108700000000     0.000000000000     0          
O        O      0.871050000000     0.435500000000     0.129800000000     0          
O        O      0.821150000000     0.446650000000     0.150600000000     0          
O        O      0.883800000000     0.000000000000     0.138200000000     0          
O        O      0.842900000000     0.461800000000     0.091700000000     0          
O        O      0.740500000000     0.175500000000     0.368600000000     0          
O        O      0.728150000000     0.161900000000     0.307950000000     0          
O        O      0.733600000000     0.116800000000     0.345150000000     0          
O        O      0.780600000000     0.447900000000     0.072400000000     0          
O        O      0.791600000000     0.000000000000     0.110050000000     0          
O        O      0.727550000000     0.455150000000     0.091100000000     0          
O        O      0.774200000000     0.456250000000     0.250000000000     0          
O        O      0.725200000000     0.450400000000     0.210850000000     0          
O        O      0.790750000000     0.000000000000     0.202300000000     0          
O        O      0.700950000000     0.100500000000     0.431550000000     0          
O        O      0.671750000000     0.126350000000     0.469000000000     0          
T        Si     0.854650000000     0.461000000000     0.127550000000     0          
T        Si     0.720400000000     0.144900000000     0.342800000000     0          
T        Si     0.764850000000     0.459600000000     0.101250000000     0          
T        Si     0.765550000000     0.460150000000     0.213750000000     0          
T        Si     0.687350000000     0.128250000000     0.434200000000     0          
T        Si     0.851750000000     0.460450000000     0.000000000000     0          
O        O      0.935550000000     0.371050000000     0.129800000000     0          
O        O      0.874500000000     0.321150000000     0.150600000000     0          
O        O      0.883800000000     0.383800000000     0.138200000000     0          
O        O      0.881100000000     0.342900000000     0.091700000000     0          
O        O      0.565000000000     0.240500000000     0.368600000000     0          
O        O      0.566250000000     0.228150000000     0.307950000000     0          
O        O      0.616800000000     0.233600000000     0.345150000000     0          
O        O      0.832700000000     0.280600000000     0.072400000000     0          
O        O      0.791600000000     0.291600000000     0.110050000000     0          
O        O      0.772400000000     0.227550000000     0.091100000000     0          
O        O      0.817950000000     0.274200000000     0.250000000000     0          
O        O      0.774800000000     0.225200000000     0.210850000000     0          
O        O      0.790750000000     0.290750000000     0.202300000000     0          
O        O      0.600450000000     0.200950000000     0.431550000000     0          
O        O      0.545400000000     0.171750000000     0.469000000000     0          
T        Si     0.893650000000     0.354650000000     0.127550000000     0          
T        Si     0.575500000000     0.220400000000     0.342800000000     0          
T        Si     0.805250000000     0.264850000000     0.101250000000     0          
T        Si     0.805400000000     0.265550000000     0.213750000000     0          
T        Si     0.559100000000     0.187350000000     0.434200000000     0          
T        Si     0.891300000000     0.351750000000     0.000000000000     0          
O        O      0.564500000000     0.435550000000     0.129800000000     0          
O        O      0.553350000000     0.374500000000     0.150600000000     0          
O        O      0.500000000000     0.383800000000     0.138200000000     0          
O        O      0.538200000000     0.381100000000     0.091700000000     0          
O        O      0.824500000000     0.065000000000     0.368600000000     0          
O        O      0.838100000000     0.066250000000     0.307950000000     0          
O        O      0.883200000000     0.116800000000     0.345150000000     0          
O        O      0.552100000000     0.332700000000     0.072400000000     0          
O        O      0.500000000000     0.291600000000     0.110050000000     0          
O        O      0.544850000000     0.272400000000     0.091100000000     0          
O        O      0.543750000000     0.317950000000     0.250000000000     0          
O        O      0.549600000000     0.274800000000     0.210850000000     0          
O        O      0.500000000000     0.290750000000     0.202300000000     0          
O        O      0.899500000000     0.100450000000     0.431550000000     0          
O        O      0.873650000000     0.045400000000     0.469000000000     0          
T        Si     0.539000000000     0.393650000000     0.127550000000     0          
T        Si     0.855100000000     0.075500000000     0.342800000000     0          
T        Si     0.540400000000     0.305250000000     0.101250000000     0          
T        Si     0.539850000000     0.305400000000     0.213750000000     0          
T        Si     0.871750000000     0.059100000000     0.434200000000     0          
T        Si     0.539550000000     0.391300000000     0.000000000000     0          
O        O      0.628950000000     0.064500000000     0.129800000000     0          
O        O      0.678850000000     0.053350000000     0.150600000000     0          
O        O      0.616200000000     0.000000000000     0.138200000000     0          
O        O      0.657100000000     0.038200000000     0.091700000000     0          
O        O      0.759500000000     0.324500000000     0.368600000000     0          
O        O      0.771850000000     0.338100000000     0.307950000000     0          
O        O      0.766400000000     0.383200000000     0.345150000000     0          
O        O      0.719400000000     0.052100000000     0.072400000000     0          
O        O      0.708400000000     0.000000000000     0.110050000000     0          
O        O      0.772450000000     0.044850000000     0.091100000000     0          
O        O      0.725800000000     0.043750000000     0.250000000000     0          
O        O      0.774800000000     0.049600000000     0.210850000000     0          
O        O      0.709250000000     0.000000000000     0.202300000000     0          
O        O      0.799050000000     0.399500000000     0.431550000000     0          
O        O      0.828250000000     0.373650000000     0.469000000000     0          
T        Si     0.645350000000     0.039000000000     0.127550000000     0          
T        Si     0.779600000000     0.355100000000     0.342800000000     0          
T        Si     0.735150000000     0.040400000000     0.101250000000     0          
T        Si     0.734450000000     0.039850000000     0.213750000000     0          
T        Si     0.812650000000     0.371750000000     0.434200000000     0          
T        Si     0.648250000000     0.039550000000     0.000000000000     0          
O        O      0.564450000000     0.128950000000     0.129800000000     0          
O        O      0.625500000000     0.178850000000     0.150600000000     0          
O        O      0.616200000000     0.116200000000     0.138200000000     0          
O        O      0.618900000000     0.157100000000     0.091700000000     0          
O        O      0.935000000000     0.259500000000     0.368600000000     0          
O        O      0.933750000000     0.271850000000     0.307950000000     0          
O        O      0.883200000000     0.266400000000     0.345150000000     0          
O        O      0.667300000000     0.219400000000     0.072400000000     0          
O        O      0.708400000000     0.208400000000     0.110050000000     0          
O        O      0.727600000000     0.272450000000     0.091100000000     0          
O        O      0.682050000000     0.225800000000     0.250000000000     0          
O        O      0.725200000000     0.274800000000     0.210850000000     0          
O        O      0.709250000000     0.209250000000     0.202300000000     0          
O        O      0.899550000000     0.299050000000     0.431550000000     0          
O        O      0.954600000000     0.328250000000     0.469000000000     0          
T        Si     0.606350000000     0.145350000000     0.127550000000     0          
T        Si     0.924500000000     0.279600000000     0.342800000000     0          
T        Si     0.694750000000     0.235150000000     0.101250000000     0          
T        Si     0.694600000000     0.234450000000     0.213750000000     0          
T        Si     0.940900000000     0.312650000000     0.434200000000     0          
T        Si     0.608700000000     0.148250000000     0.000000000000     0          
O        O      0.935500000000     0.064450000000     0.129800000000     0          
O        O      0.946650000000     0.125500000000     0.150600000000     0          
O        O      0.500000000000     0.116200000000     0.138200000000     0          
O        O      0.961800000000     0.118900000000     0.091700000000     0          
O        O      0.675500000000     0.435000000000     0.368600000000     0          
O        O      0.661900000000     0.433750000000     0.307950000000     0          
O        O      0.616800000000     0.383200000000     0.345150000000     0          
O        O      0.947900000000     0.167300000000     0.072400000000     0          
O        O      0.500000000000     0.208400000000     0.110050000000     0          
O        O      0.955150000000     0.227600000000     0.091100000000     0          
O        O      0.956250000000     0.182050000000     0.250000000000     0          
O        O      0.950400000000     0.225200000000     0.210850000000     0          
O        O      0.500000000000     0.209250000000     0.202300000000     0          
O        O      0.600500000000     0.399550000000     0.431550000000     0          
O        O      0.626350000000     0.454600000000     0.469000000000     0          
T        Si     0.961000000000     0.106350000000     0.127550000000     0          
T        Si     0.644900000000     0.424500000000     0.342800000000     0          
T        Si     0.959600000000     0.194750000000     0.101250000000     0          
T        Si     0.960150000000     0.194600000000     0.213750000000     0          
T        Si     0.628250000000     0.440900000000     0.434200000000     0          
T        Si     0.960450000000     0.108700000000     0.000000000000     0          
O        O      0.946650000000     0.321150000000     0.150600000000     0          
O        O      0.961800000000     0.342900000000     0.091700000000     0          
O        O      0.675500000000     0.240500000000     0.368600000000     0          
O        O      0.661900000000     0.228150000000     0.307950000000     0          
O        O      0.947900000000     0.280600000000     0.072400000000     0          
O        O      0.626350000000     0.171750000000     0.469000000000     0          
T        Si     0.961000000000     0.354650000000     0.127550000000     0          
T        Si     0.644900000000     0.220400000000     0.342800000000     0          
T        Si     0.959600000000     0.264850000000     0.101250000000     0          
T        Si     0.960150000000     0.265550000000     0.213750000000     0          
T        Si     0.628250000000     0.187350000000     0.434200000000     0          
O        O      0.625500000000     0.446650000000     0.150600000000     0          
O        O      0.618900000000     0.461800000000     0.091700000000     0          
O        O      0.935000000000     0.175500000000     0.368600000000     0          
O        O      0.933750000000     0.161900000000     0.307950000000     0          
O        O      0.667300000000     0.447900000000     0.072400000000     0          
O        O      0.954600000000     0.126350000000     0.469000000000     0          
T        Si     0.606350000000     0.461000000000     0.127550000000     0          
T        Si     0.924500000000     0.144900000000     0.342800000000     0          
T        Si     0.694750000000     0.459600000000     0.101250000000     0          
T        Si     0.694600000000     0.460150000000     0.213750000000     0          
T        Si     0.940900000000     0.128250000000     0.434200000000     0          
O        O      0.678850000000     0.125500000000     0.150600000000     0          
O        O      0.657100000000     0.118900000000     0.091700000000     0          
O        O      0.759500000000     0.435000000000     0.368600000000     0          
O        O      0.771850000000     0.433750000000     0.307950000000     0          
O        O      0.719400000000     0.167300000000     0.072400000000     0          
O        O      0.828250000000     0.454600000000     0.469000000000     0          
T        Si     0.645350000000     0.106350000000     0.127550000000     0          
T        Si     0.779600000000     0.424500000000     0.342800000000     0          
T        Si     0.735150000000     0.194750000000     0.101250000000     0          
T        Si     0.734450000000     0.194600000000     0.213750000000     0          
T        Si     0.812650000000     0.440900000000     0.434200000000     0          
O        O      0.553350000000     0.178850000000     0.150600000000     0          
O        O      0.538200000000     0.157100000000     0.091700000000     0          
O        O      0.824500000000     0.259500000000     0.368600000000     0          
O        O      0.838100000000     0.271850000000     0.307950000000     0          
O        O      0.552100000000     0.219400000000     0.072400000000     0          
O        O      0.873650000000     0.328250000000     0.469000000000     0          
T        Si     0.539000000000     0.145350000000     0.127550000000     0          
T        Si     0.855100000000     0.279600000000     0.342800000000     0          
T        Si     0.540400000000     0.235150000000     0.101250000000     0          
T        Si     0.539850000000     0.234450000000     0.213750000000     0          
T        Si     0.871750000000     0.312650000000     0.434200000000     0          
O        O      0.874500000000     0.053350000000     0.150600000000     0          
O        O      0.881100000000     0.038200000000     0.091700000000     0          
O        O      0.565000000000     0.324500000000     0.368600000000     0          
O        O      0.566250000000     0.338100000000     0.307950000000     0          
O        O      0.832700000000     0.052100000000     0.072400000000     0          
O        O      0.545400000000     0.373650000000     0.469000000000     0          
T        Si     0.893650000000     0.039000000000     0.127550000000     0          
T        Si     0.575500000000     0.355100000000     0.342800000000     0          
T        Si     0.805250000000     0.040400000000     0.101250000000     0          
T        Si     0.805400000000     0.039850000000     0.213750000000     0          
T        Si     0.559100000000     0.371750000000     0.434200000000     0          
O        O      0.821150000000     0.374500000000     0.150600000000     0          
O        O      0.842900000000     0.381100000000     0.091700000000     0          
O        O      0.740500000000     0.065000000000     0.368600000000     0          
O        O      0.728150000000     0.066250000000     0.307950000000     0          
O        O      0.780600000000     0.332700000000     0.072400000000     0          
O        O      0.671750000000     0.045400000000     0.469000000000     0          
T        Si     0.854650000000     0.393650000000     0.127550000000     0          
T        Si     0.720400000000     0.075500000000     0.342800000000     0          
T        Si     0.764850000000     0.305250000000     0.101250000000     0          
T        Si     0.765550000000     0.305400000000     0.213750000000     0          
T        Si     0.687350000000     0.059100000000     0.434200000000     0          
O        O      0.678850000000     0.053350000000     0.349400000000     0          
O        O      0.657100000000     0.038200000000     0.408300000000     0          
O        O      0.759500000000     0.324500000000     0.131400000000     0          
O        O      0.771850000000     0.338100000000     0.192050000000     0          
O        O      0.719400000000     0.052100000000     0.427600000000     0          
O        O      0.828250000000     0.373650000000     0.031000000000     0          
T        Si     0.645350000000     0.039000000000     0.372450000000     0          
T        Si     0.779600000000     0.355100000000     0.157200000000     0          
T        Si     0.735150000000     0.040400000000     0.398750000000     0          
T        Si     0.734450000000     0.039850000000     0.286250000000     0          
T        Si     0.812650000000     0.371750000000     0.065800000000     0          
O        O      0.625500000000     0.178850000000     0.349400000000     0          
O        O      0.618900000000     0.157100000000     0.408300000000     0          
O        O      0.935000000000     0.259500000000     0.131400000000     0          
O        O      0.933750000000     0.271850000000     0.192050000000     0          
O        O      0.667300000000     0.219400000000     0.427600000000     0          
O        O      0.954600000000     0.328250000000     0.031000000000     0          
T        Si     0.606350000000     0.145350000000     0.372450000000     0          
T        Si     0.924500000000     0.279600000000     0.157200000000     0          
T        Si     0.694750000000     0.235150000000     0.398750000000     0          
T        Si     0.694600000000     0.234450000000     0.286250000000     0          
T        Si     0.940900000000     0.312650000000     0.065800000000     0          
O        O      0.946650000000     0.125500000000     0.349400000000     0          
O        O      0.961800000000     0.118900000000     0.408300000000     0          
O        O      0.675500000000     0.435000000000     0.131400000000     0          
O        O      0.661900000000     0.433750000000     0.192050000000     0          
O        O      0.947900000000     0.167300000000     0.427600000000     0          
O        O      0.626350000000     0.454600000000     0.031000000000     0          
T        Si     0.961000000000     0.106350000000     0.372450000000     0          
T        Si     0.644900000000     0.424500000000     0.157200000000     0          
T        Si     0.959600000000     0.194750000000     0.398750000000     0          
T        Si     0.960150000000     0.194600000000     0.286250000000     0          
T        Si     0.628250000000     0.440900000000     0.065800000000     0          
O        O      0.821150000000     0.446650000000     0.349400000000     0          
O        O      0.842900000000     0.461800000000     0.408300000000     0          
O        O      0.740500000000     0.175500000000     0.131400000000     0          
O        O      0.728150000000     0.161900000000     0.192050000000     0          
O        O      0.780600000000     0.447900000000     0.427600000000     0          
O        O      0.671750000000     0.126350000000     0.031000000000     0          
T        Si     0.854650000000     0.461000000000     0.372450000000     0          
T        Si     0.720400000000     0.144900000000     0.157200000000     0          
T        Si     0.764850000000     0.459600000000     0.398750000000     0          
T        Si     0.765550000000     0.460150000000     0.286250000000     0          
T        Si     0.687350000000     0.128250000000     0.065800000000     0          
O        O      0.874500000000     0.321150000000     0.349400000000     0          
O        O      0.881100000000     0.342900000000     0.408300000000     0          
O        O      0.565000000000     0.240500000000     0.131400000000     0          
O        O      0.566250000000     0.228150000000     0.192050000000     0          
O        O      0.832700000000     0.280600000000     0.427600000000     0          
O        O      0.545400000000     0.171750000000     0.031000000000     0          
T        Si     0.893650000000     0.354650000000     0.372450000000     0          
T        Si     0.575500000000     0.220400000000     0.157200000000     0          
T        Si     0.805250000000     0.264850000000     0.398750000000     0          
T        Si     0.805400000000     0.265550000000     0.286250000000     0          
T        Si     0.559100000000     0.187350000000     0.065800000000     0          
O        O      0.553350000000     0.374500000000     0.349400000000     0          
O        O      0.538200000000     0.381100000000     0.408300000000     0          
O        O      0.824500000000     0.065000000000     0.131400000000     0          
O        O      0.838100000000     0.066250000000     0.192050000000     0          
O        O      0.552100000000     0.332700000000     0.427600000000     0          
O        O      0.873650000000     0.045400000000     0.031000000000     0          
T        Si     0.539000000000     0.393650000000     0.372450000000     0          
T        Si     0.855100000000     0.075500000000     0.157200000000     0          
T        Si     0.540400000000     0.305250000000     0.398750000000     0          
T        Si     0.539850000000     0.305400000000     0.286250000000     0          
T        Si     0.871750000000     0.059100000000     0.065800000000     0          
O        O      0.564500000000     0.128950000000     0.870200000000     0          
O        O      0.553350000000     0.178850000000     0.849400000000     0          
O        O      0.500000000000     0.116200000000     0.861800000000     0          
O        O      0.538200000000     0.157100000000     0.908300000000     0          
O        O      0.824500000000     0.259500000000     0.631400000000     0          
O        O      0.838100000000     0.271850000000     0.692050000000     0          
O        O      0.883200000000     0.266400000000     0.654850000000     0          
O        O      0.552100000000     0.219400000000     0.927600000000     0          
O        O      0.500000000000     0.208400000000     0.889950000000     0          
O        O      0.544850000000     0.272450000000     0.908900000000     0          
O        O      0.543750000000     0.225800000000     0.750000000000     0          
O        O      0.549600000000     0.274800000000     0.789150000000     0          
O        O      0.500000000000     0.209250000000     0.797700000000     0          
O        O      0.899500000000     0.299050000000     0.568450000000     0          
O        O      0.873650000000     0.328250000000     0.531000000000     0          
O        O      0.500000000000     0.115500000000     0.500000000000     0          
O        O      0.567150000000     0.134300000000     0.500000000000     0          
T        Si     0.539000000000     0.145350000000     0.872450000000     0          
T        Si     0.855100000000     0.279600000000     0.657200000000     0          
T        Si     0.540400000000     0.235150000000     0.898750000000     0          
T        Si     0.539850000000     0.234450000000     0.786250000000     0          
T        Si     0.871750000000     0.312650000000     0.565800000000     0          
T        Si     0.539550000000     0.148250000000     0.500000000000     0          
O        O      0.935550000000     0.064500000000     0.870200000000     0          
O        O      0.874500000000     0.053350000000     0.849400000000     0          
O        O      0.883800000000     0.000000000000     0.861800000000     0          
O        O      0.881100000000     0.038200000000     0.908300000000     0          
O        O      0.565000000000     0.324500000000     0.631400000000     0          
O        O      0.566250000000     0.338100000000     0.692050000000     0          
O        O      0.616800000000     0.383200000000     0.654850000000     0          
O        O      0.832700000000     0.052100000000     0.927600000000     0          
O        O      0.791600000000     0.000000000000     0.889950000000     0          
O        O      0.772400000000     0.044850000000     0.908900000000     0          
O        O      0.817950000000     0.043750000000     0.750000000000     0          
O        O      0.774800000000     0.049600000000     0.789150000000     0          
O        O      0.790750000000     0.000000000000     0.797700000000     0          
O        O      0.600450000000     0.399500000000     0.568450000000     0          
O        O      0.545400000000     0.373650000000     0.531000000000     0          
O        O      0.884500000000     0.000000000000     0.500000000000     0          
O        O      0.932850000000     0.067150000000     0.500000000000     0          
T        Si     0.893650000000     0.039000000000     0.872450000000     0          
T        Si     0.575500000000     0.355100000000     0.657200000000     0          
T        Si     0.805250000000     0.040400000000     0.898750000000     0          
T        Si     0.805400000000     0.039850000000     0.786250000000     0          
T        Si     0.559100000000     0.371750000000     0.565800000000     0          
T        Si     0.891300000000     0.039550000000     0.500000000000     0          
O        O      0.871050000000     0.435550000000     0.870200000000     0          
O        O      0.821150000000     0.374500000000     0.849400000000     0          
O        O      0.883800000000     0.383800000000     0.861800000000     0          
O        O      0.842900000000     0.381100000000     0.908300000000     0          
O        O      0.740500000000     0.065000000000     0.631400000000     0          
O        O      0.728150000000     0.066250000000     0.692050000000     0          
O        O      0.733600000000     0.116800000000     0.654850000000     0          
O        O      0.780600000000     0.332700000000     0.927600000000     0          
O        O      0.791600000000     0.291600000000     0.889950000000     0          
O        O      0.727550000000     0.272400000000     0.908900000000     0          
O        O      0.774200000000     0.317950000000     0.750000000000     0          
O        O      0.725200000000     0.274800000000     0.789150000000     0          
O        O      0.790750000000     0.290750000000     0.797700000000     0          
O        O      0.700950000000     0.100450000000     0.568450000000     0          
O        O      0.671750000000     0.045400000000     0.531000000000     0          
O        O      0.884500000000     0.384500000000     0.500000000000     0          
O        O      0.865700000000     0.432850000000     0.500000000000     0          
T        Si     0.854650000000     0.393650000000     0.872450000000     0          
T        Si     0.720400000000     0.075500000000     0.657200000000     0          
T        Si     0.764850000000     0.305250000000     0.898750000000     0          
T        Si     0.765550000000     0.305400000000     0.786250000000     0          
T        Si     0.687350000000     0.059100000000     0.565800000000     0          
T        Si     0.851750000000     0.391300000000     0.500000000000     0          
O        O      0.935500000000     0.371050000000     0.870200000000     0          
O        O      0.946650000000     0.321150000000     0.849400000000     0          
O        O      0.500000000000     0.383800000000     0.861800000000     0          
O        O      0.961800000000     0.342900000000     0.908300000000     0          
O        O      0.675500000000     0.240500000000     0.631400000000     0          
O        O      0.661900000000     0.228150000000     0.692050000000     0          
O        O      0.616800000000     0.233600000000     0.654850000000     0          
O        O      0.947900000000     0.280600000000     0.927600000000     0          
O        O      0.500000000000     0.291600000000     0.889950000000     0          
O        O      0.955150000000     0.227550000000     0.908900000000     0          
O        O      0.956250000000     0.274200000000     0.750000000000     0          
O        O      0.950400000000     0.225200000000     0.789150000000     0          
O        O      0.500000000000     0.290750000000     0.797700000000     0          
O        O      0.600500000000     0.200950000000     0.568450000000     0          
O        O      0.626350000000     0.171750000000     0.531000000000     0          
O        O      0.500000000000     0.384500000000     0.500000000000     0          
O        O      0.932850000000     0.365700000000     0.500000000000     0          
T        Si     0.961000000000     0.354650000000     0.872450000000     0          
T        Si     0.644900000000     0.220400000000     0.657200000000     0          
T        Si     0.959600000000     0.264850000000     0.898750000000     0          
T        Si     0.960150000000     0.265550000000     0.786250000000     0          
T        Si     0.628250000000     0.187350000000     0.565800000000     0          
T        Si     0.960450000000     0.351750000000     0.500000000000     0          
O        O      0.564450000000     0.435500000000     0.870200000000     0          
O        O      0.625500000000     0.446650000000     0.849400000000     0          
O        O      0.616200000000     0.000000000000     0.861800000000     0          
O        O      0.618900000000     0.461800000000     0.908300000000     0          
O        O      0.935000000000     0.175500000000     0.631400000000     0          
O        O      0.933750000000     0.161900000000     0.692050000000     0          
O        O      0.883200000000     0.116800000000     0.654850000000     0          
O        O      0.667300000000     0.447900000000     0.927600000000     0          
O        O      0.708400000000     0.000000000000     0.889950000000     0          
O        O      0.727600000000     0.455150000000     0.908900000000     0          
O        O      0.682050000000     0.456250000000     0.750000000000     0          
O        O      0.725200000000     0.450400000000     0.789150000000     0          
O        O      0.709250000000     0.000000000000     0.797700000000     0          
O        O      0.899550000000     0.100500000000     0.568450000000     0          
O        O      0.954600000000     0.126350000000     0.531000000000     0          
O        O      0.615500000000     0.000000000000     0.500000000000     0          
O        O      0.567150000000     0.432850000000     0.500000000000     0          
T        Si     0.606350000000     0.461000000000     0.872450000000     0          
T        Si     0.924500000000     0.144900000000     0.657200000000     0          
T        Si     0.694750000000     0.459600000000     0.898750000000     0          
T        Si     0.694600000000     0.460150000000     0.786250000000     0          
T        Si     0.940900000000     0.128250000000     0.565800000000     0          
T        Si     0.608700000000     0.460450000000     0.500000000000     0          
O        O      0.628950000000     0.064450000000     0.870200000000     0          
O        O      0.678850000000     0.125500000000     0.849400000000     0          
O        O      0.616200000000     0.116200000000     0.861800000000     0          
O        O      0.657100000000     0.118900000000     0.908300000000     0          
O        O      0.759500000000     0.435000000000     0.631400000000     0          
O        O      0.771850000000     0.433750000000     0.692050000000     0          
O        O      0.766400000000     0.383200000000     0.654850000000     0          
O        O      0.719400000000     0.167300000000     0.927600000000     0          
O        O      0.708400000000     0.208400000000     0.889950000000     0          
O        O      0.772450000000     0.227600000000     0.908900000000     0          
O        O      0.725800000000     0.182050000000     0.750000000000     0          
O        O      0.774800000000     0.225200000000     0.789150000000     0          
O        O      0.709250000000     0.209250000000     0.797700000000     0          
O        O      0.799050000000     0.399550000000     0.568450000000     0          
O        O      0.828250000000     0.454600000000     0.531000000000     0          
O        O      0.615500000000     0.115500000000     0.500000000000     0          
O        O      0.634300000000     0.067150000000     0.500000000000     0          
T        Si     0.645350000000     0.106350000000     0.872450000000     0          
T        Si     0.779600000000     0.424500000000     0.657200000000     0          
T        Si     0.735150000000     0.194750000000     0.898750000000     0          
T        Si     0.734450000000     0.194600000000     0.786250000000     0          
T        Si     0.812650000000     0.440900000000     0.565800000000     0          
T        Si     0.648250000000     0.108700000000     0.500000000000     0          
O        O      0.871050000000     0.435500000000     0.629800000000     0          
O        O      0.821150000000     0.446650000000     0.650600000000     0          
O        O      0.883800000000     0.000000000000     0.638200000000     0          
O        O      0.842900000000     0.461800000000     0.591700000000     0          
O        O      0.740500000000     0.175500000000     0.868600000000     0          
O        O      0.728150000000     0.161900000000     0.807950000000     0          
O        O      0.733600000000     0.116800000000     0.845150000000     0          
O        O      0.780600000000     0.447900000000     0.572400000000     0          
O        O      0.791600000000     0.000000000000     0.610050000000     0          
O        O      0.727550000000     0.455150000000     0.591100000000     0          
O        O      0.774200000000     0.456250000000     0.750000000000     0          
O        O      0.725200000000     0.450400000000     0.710850000000     0          
O        O      0.790750000000     0.000000000000     0.702300000000     0          
O        O      0.700950000000     0.100500000000     0.931550000000     0          
O        O      0.671750000000     0.126350000000     0.969000000000     0          
T        Si     0.854650000000     0.461000000000     0.627550000000     0          
T        Si     0.720400000000     0.144900000000     0.842800000000     0          
T        Si     0.764850000000     0.459600000000     0.601250000000     0          
T        Si     0.765550000000     0.460150000000     0.713750000000     0          
T        Si     0.687350000000     0.128250000000     0.934200000000     0          
T        Si     0.851750000000     0.460450000000     0.500000000000     0          
O        O      0.935550000000     0.371050000000     0.629800000000     0          
O        O      0.874500000000     0.321150000000     0.650600000000     0          
O        O      0.883800000000     0.383800000000     0.638200000000     0          
O        O      0.881100000000     0.342900000000     0.591700000000     0          
O        O      0.565000000000     0.240500000000     0.868600000000     0          
O        O      0.566250000000     0.228150000000     0.807950000000     0          
O        O      0.616800000000     0.233600000000     0.845150000000     0          
O        O      0.832700000000     0.280600000000     0.572400000000     0          
O        O      0.791600000000     0.291600000000     0.610050000000     0          
O        O      0.772400000000     0.227550000000     0.591100000000     0          
O        O      0.817950000000     0.274200000000     0.750000000000     0          
O        O      0.774800000000     0.225200000000     0.710850000000     0          
O        O      0.790750000000     0.290750000000     0.702300000000     0          
O        O      0.600450000000     0.200950000000     0.931550000000     0          
O        O      0.545400000000     0.171750000000     0.969000000000     0          
T        Si     0.893650000000     0.354650000000     0.627550000000     0          
T        Si     0.575500000000     0.220400000000     0.842800000000     0          
T        Si     0.805250000000     0.264850000000     0.601250000000     0          
T        Si     0.805400000000     0.265550000000     0.713750000000     0          
T        Si     0.559100000000     0.187350000000     0.934200000000     0          
T        Si     0.891300000000     0.351750000000     0.500000000000     0          
O        O      0.564500000000     0.435550000000     0.629800000000     0          
O        O      0.553350000000     0.374500000000     0.650600000000     0          
O        O      0.500000000000     0.383800000000     0.638200000000     0          
O        O      0.538200000000     0.381100000000     0.591700000000     0          
O        O      0.824500000000     0.065000000000     0.868600000000     0          
O        O      0.838100000000     0.066250000000     0.807950000000     0          
O        O      0.883200000000     0.116800000000     0.845150000000     0          
O        O      0.552100000000     0.332700000000     0.572400000000     0          
O        O      0.500000000000     0.291600000000     0.610050000000     0          
O        O      0.544850000000     0.272400000000     0.591100000000     0          
O        O      0.543750000000     0.317950000000     0.750000000000     0          
O        O      0.549600000000     0.274800000000     0.710850000000     0          
O        O      0.500000000000     0.290750000000     0.702300000000     0          
O        O      0.899500000000     0.100450000000     0.931550000000     0          
O        O      0.873650000000     0.045400000000     0.969000000000     0          
T        Si     0.539000000000     0.393650000000     0.627550000000     0          
T        Si     0.855100000000     0.075500000000     0.842800000000     0          
T        Si     0.540400000000     0.305250000000     0.601250000000     0          
T        Si     0.539850000000     0.305400000000     0.713750000000     0          
T        Si     0.871750000000     0.059100000000     0.934200000000     0          
T        Si     0.539550000000     0.391300000000     0.500000000000     0          
O        O      0.628950000000     0.064500000000     0.629800000000     0          
O        O      0.678850000000     0.053350000000     0.650600000000     0          
O        O      0.616200000000     0.000000000000     0.638200000000     0          
O        O      0.657100000000     0.038200000000     0.591700000000     0          
O        O      0.759500000000     0.324500000000     0.868600000000     0          
O        O      0.771850000000     0.338100000000     0.807950000000     0          
O        O      0.766400000000     0.383200000000     0.845150000000     0          
O        O      0.719400000000     0.052100000000     0.572400000000     0          
O        O      0.708400000000     0.000000000000     0.610050000000     0          
O        O      0.772450000000     0.044850000000     0.591100000000     0          
O        O      0.725800000000     0.043750000000     0.750000000000     0          
O        O      0.774800000000     0.049600000000     0.710850000000     0          
O        O      0.709250000000     0.000000000000     0.702300000000     0          
O        O      0.799050000000     0.399500000000     0.931550000000     0          
O        O      0.828250000000     0.373650000000     0.969000000000     0          
T        Si     0.645350000000     0.039000000000     0.627550000000     0          
T        Si     0.779600000000     0.355100000000     0.842800000000     0          
T        Si     0.735150000000     0.040400000000     0.601250000000     0          
T        Si     0.734450000000     0.039850000000     0.713750000000     0          
T        Si     0.812650000000     0.371750000000     0.934200000000     0          
T        Si     0.648250000000     0.039550000000     0.500000000000     0          
O        O      0.564450000000     0.128950000000     0.629800000000     0          
O        O      0.625500000000     0.178850000000     0.650600000000     0          
O        O      0.616200000000     0.116200000000     0.638200000000     0          
O        O      0.618900000000     0.157100000000     0.591700000000     0          
O        O      0.935000000000     0.259500000000     0.868600000000     0          
O        O      0.933750000000     0.271850000000     0.807950000000     0          
O        O      0.883200000000     0.266400000000     0.845150000000     0          
O        O      0.667300000000     0.219400000000     0.572400000000     0          
O        O      0.708400000000     0.208400000000     0.610050000000     0          
O        O      0.727600000000     0.272450000000     0.591100000000     0          
O        O      0.682050000000     0.225800000000     0.750000000000     0          
O        O      0.725200000000     0.274800000000     0.710850000000     0          
O        O      0.709250000000     0.209250000000     0.702300000000     0          
O        O      0.899550000000     0.299050000000     0.931550000000     0          
O        O      0.954600000000     0.328250000000     0.969000000000     0          
T        Si     0.606350000000     0.145350000000     0.627550000000     0          
T        Si     0.924500000000     0.279600000000     0.842800000000     0          
T        Si     0.694750000000     0.235150000000     0.601250000000     0          
T        Si     0.694600000000     0.234450000000     0.713750000000     0          
T        Si     0.940900000000     0.312650000000     0.934200000000     0          
T        Si     0.608700000000     0.148250000000     0.500000000000     0          
O        O      0.935500000000     0.064450000000     0.629800000000     0          
O        O      0.946650000000     0.125500000000     0.650600000000     0          
O        O      0.500000000000     0.116200000000     0.638200000000     0          
O        O      0.961800000000     0.118900000000     0.591700000000     0          
O        O      0.675500000000     0.435000000000     0.868600000000     0          
O        O      0.661900000000     0.433750000000     0.807950000000     0          
O        O      0.616800000000     0.383200000000     0.845150000000     0          
O        O      0.947900000000     0.167300000000     0.572400000000     0          
O        O      0.500000000000     0.208400000000     0.610050000000     0          
O        O      0.955150000000     0.227600000000     0.591100000000     0          
O        O      0.956250000000     0.182050000000     0.750000000000     0          
O        O      0.950400000000     0.225200000000     0.710850000000     0          
O        O      0.500000000000     0.209250000000     0.702300000000     0          
O        O      0.600500000000     0.399550000000     0.931550000000     0          
O        O      0.626350000000     0.454600000000     0.969000000000     0          
T        Si     0.961000000000     0.106350000000     0.627550000000     0          
T        Si     0.644900000000     0.424500000000     0.842800000000     0          
T        Si     0.959600000000     0.194750000000     0.601250000000     0          
T        Si     0.960150000000     0.194600000000     0.713750000000     0          
T        Si     0.628250000000     0.440900000000     0.934200000000     0          
T        Si     0.960450000000     0.108700000000     0.500000000000     0          
O        O      0.946650000000     0.321150000000     0.650600000000     0          
O        O      0.961800000000     0.342900000000     0.591700000000     0          
O        O      0.675500000000     0.240500000000     0.868600000000     0          
O        O      0.661900000000     0.228150000000     0.807950000000     0          
O        O      0.947900000000     0.280600000000     0.572400000000     0          
O        O      0.626350000000     0.171750000000     0.969000000000     0          
T        Si     0.961000000000     0.354650000000     0.627550000000     0          
T        Si     0.644900000000     0.220400000000     0.842800000000     0          
T        Si     0.959600000000     0.264850000000     0.601250000000     0          
T        Si     0.960150000000     0.265550000000     0.713750000000     0          
T        Si     0.628250000000     0.187350000000     0.934200000000     0          
O        O      0.625500000000     0.446650000000     0.650600000000     0          
O        O      0.618900000000     0.461800000000     0.591700000000     0          
O        O      0.935000000000     0.175500000000     0.868600000000     0          
O        O      0.933750000000     0.161900000000     0.807950000000     0          
O        O      0.667300000000     0.447900000000     0.572400000000     0          
O        O      0.954600000000     0.126350000000     0.969000000000     0          
T        Si     0.606350000000     0.461000000000     0.627550000000     0          
T        Si     0.924500000000     0.144900000000     0.842800000000     0          
T        Si     0.694750000000     0.459600000000     0.601250000000     0          
T        Si     0.694600000000     0.460150000000     0.713750000000     0          
T        Si     0.940900000000     0.128250000000     0.934200000000     0          
O        O      0.678850000000     0.125500000000     0.650600000000     0          
O        O      0.657100000000     0.118900000000     0.591700000000     0          
O        O      0.759500000000     0.435000000000     0.868600000000     0          
O        O      0.771850000000     0.433750000000     0.807950000000     0          
O        O      0.719400000000     0.167300000000     0.572400000000     0          
O        O      0.828250000000     0.454600000000     0.969000000000     0          
T        Si     0.645350000000     0.106350000000     0.627550000000     0          
T        Si     0.779600000000     0.424500000000     0.842800000000     0          
T        Si     0.735150000000     0.194750000000     0.601250000000     0          
T        Si     0.734450000000     0.194600000000     0.713750000000     0          
T        Si     0.812650000000     0.440900000000     0.934200000000     0          
O        O      0.553350000000     0.178850000000     0.650600000000     0          
O        O      0.538200000000     0.157100000000     0.591700000000     0          
O        O      0.824500000000     0.259500000000     0.868600000000     0          
O        O      0.838100000000     0.271850000000     0.807950000000     0          
O        O      0.552100000000     0.219400000000     0.572400000000     0          
O        O      0.873650000000     0.328250000000     0.969000000000     0          
T        Si     0.539000000000     0.145350000000     0.627550000000     0          
T        Si     0.855100000000     0.279600000000     0.842800000000     0          
T        Si     0.540400000000     0.235150000000     0.601250000000     0          
T        Si     0.539850000000     0.234450000000     0.713750000000     0          
T        Si     0.871750000000     0.312650000000     0.934200000000     0          
O        O      0.874500000000     0.053350000000     0.650600000000     0          
O        O      0.881100000000     0.038200000000     0.591700000000     0          
O        O      0.565000000000     0.324500000000     0.868600000000     0          
O        O      0.566250000000     0.338100000000     0.807950000000     0          
O        O      0.832700000000     0.052100000000     0.572400000000     0          
O        O      0.545400000000     0.373650000000     0.969000000000     0          
T        Si     0.893650000000     0.039000000000     0.627550000000     0          
T        Si     0.575500000000     0.355100000000     0.842800000000     0          
T        Si     0.805250000000     0.040400000000     0.601250000000     0          
T        Si     0.805400000000     0.039850000000     0.713750000000     0          
T        Si     0.559100000000     0.371750000000     0.934200000000     0          
O        O      0.821150000000     0.374500000000     0.650600000000     0          
O        O      0.842900000000     0.381100000000     0.591700000000     0          
O        O      0.740500000000     0.065000000000     0.868600000000     0          
O        O      0.728150000000     0.066250000000     0.807950000000     0          
O        O      0.780600000000     0.332700000000     0.572400000000     0          
O        O      0.671750000000     0.045400000000     0.969000000000     0          
T        Si     0.854650000000     0.393650000000     0.627550000000     0          
T        Si     0.720400000000     0.075500000000     0.842800000000     0          
T        Si     0.764850000000     0.305250000000     0.601250000000     0          
T        Si     0.765550000000     0.305400000000     0.713750000000     0          
T        Si     0.687350000000     0.059100000000     0.934200000000     0          
O        O      0.678850000000     0.053350000000     0.849400000000     0          
O        O      0.657100000000     0.038200000000     0.908300000000     0          
O        O      0.759500000000     0.324500000000     0.631400000000     0          
O        O      0.771850000000     0.338100000000     0.692050000000     0          
O        O      0.719400000000     0.052100000000     0.927600000000     0          
O        O      0.828250000000     0.373650000000     0.531000000000     0          
T        Si     0.645350000000     0.039000000000     0.872450000000     0          
T        Si     0.779600000000     0.355100000000     0.657200000000     0          
T        Si     0.735150000000     0.040400000000     0.898750000000     0          
T        Si     0.734450000000     0.039850000000     0.786250000000     0          
T        Si     0.812650000000     0.371750000000     0.565800000000     0          
O        O      0.625500000000     0.178850000000     0.849400000000     0          
O        O      0.618900000000     0.157100000000     0.908300000000     0          
O        O      0.935000000000     0.259500000000     0.631400000000     0          
O        O      0.933750000000     0.271850000000     0.692050000000     0          
O        O      0.667300000000     0.219400000000     0.927600000000     0          
O        O      0.954600000000     0.328250000000     0.531000000000     0          
T        Si     0.606350000000     0.145350000000     0.872450000000     0          
T        Si     0.924500000000     0.279600000000     0.657200000000     0          
T        Si     0.694750000000     0.235150000000     0.898750000000     0          
T        Si     0.694600000000     0.234450000000     0.786250000000     0          
T        Si     0.940900000000     0.312650000000     0.565800000000     0          
O        O      0.946650000000     0.125500000000     0.849400000000     0          
O        O      0.961800000000     0.118900000000     0.908300000000     0          
O        O      0.675500000000     0.435000000000     0.631400000000     0          
O        O      0.661900000000     0.433750000000     0.692050000000     0          
O        O      0.947900000000     0.167300000000     0.927600000000     0          
O        O      0.626350000000     0.454600000000     0.531000000000     0          
T        Si     0.961000000000     0.106350000000     0.872450000000     0          
T        Si     0.644900000000     0.424500000000     0.657200000000     0          
T        Si     0.959600000000     0.194750000000     0.898750000000     0          
T        Si     0.960150000000     0.194600000000     0.786250000000     0          
T        Si     0.628250000000     0.440900000000     0.565800000000     0          
O        O      0.821150000000     0.446650000000     0.849400000000     0          
O        O      0.842900000000     0.461800000000     0.908300000000     0          
O        O      0.740500000000     0.175500000000     0.631400000000     0          
O        O      0.728150000000     0.161900000000     0.692050000000     0          
O        O      0.780600000000     0.447900000000     0.927600000000     0          
O        O      0.671750000000     0.126350000000     0.531000000000     0          
T        Si     0.854650000000     0.461000000000     0.872450000000     0          
T        Si     0.720400000000     0.144900000000     0.657200000000     0          
T        Si     0.764850000000     0.459600000000     0.898750000000     0          
T        Si     0.765550000000     0.460150000000     0.786250000000     0          
T        Si     0.687350000000     0.128250000000     0.565800000000     0          
O        O      0.874500000000     0.321150000000     0.849400000000     0          
O        O      0.881100000000     0.342900000000     0.908300000000     0          
O        O      0.565000000000     0.240500000000     0.631400000000     0          
O        O      0.566250000000     0.228150000000     0.692050000000     0          
O        O      0.832700000000     0.280600000000     0.927600000000     0          
O        O      0.545400000000     0.171750000000     0.531000000000     0          
T        Si     0.893650000000     0.354650000000     0.872450000000     0          
T        Si     0.575500000000     0.220400000000     0.657200000000     0          
T        Si     0.805250000000     0.264850000000     0.898750000000     0          
T        Si     0.805400000000     0.265550000000     0.786250000000     0          
T        Si     0.559100000000     0.187350000000     0.565800000000     0          
O        O      0.553350000000     0.374500000000     0.849400000000     0          
O        O      0.538200000000     0.381100000000     0.908300000000     0          
O        O      0.824500000000     0.065000000000     0.631400000000     0          
O        O      0.838100000000     0.066250000000     0.692050000000     0          
O        O      0.552100000000     0.332700000000     0.927600000000     0          
O        O      0.873650000000     0.045400000000     0.531000000000     0          
T        Si     0.539000000000     0.393650000000     0.872450000000     0          
T        Si     0.855100000000     0.075500000000     0.657200000000     0          
T        Si     0.540400000000     0.305250000000     0.898750000000     0          
T        Si     0.539850000000     0.305400000000     0.786250000000     0          
T        Si     0.871750000000     0.059100000000     0.565800000000     0          
O        O      0.564500000000     0.628950000000     0.370200000000     0          
O        O      0.553350000000     0.678850000000     0.349400000000     0          
O        O      0.500000000000     0.616200000000     0.361800000000     0          
O        O      0.538200000000     0.657100000000     0.408300000000     0          
O        O      0.824500000000     0.759500000000     0.131400000000     0          
O        O      0.838100000000     0.771850000000     0.192050000000     0          
O        O      0.883200000000     0.766400000000     0.154850000000     0          
O        O      0.552100000000     0.719400000000     0.427600000000     0          
O        O      0.500000000000     0.708400000000     0.389950000000     0          
O        O      0.544850000000     0.772450000000     0.408900000000     0          
O        O      0.543750000000     0.725800000000     0.250000000000     0          
O        O      0.549600000000     0.774800000000     0.289150000000     0          
O        O      0.500000000000     0.709250000000     0.297700000000     0          
O        O      0.899500000000     0.799050000000     0.068450000000     0          
O        O      0.873650000000     0.828250000000     0.031000000000     0          
O        O      0.500000000000     0.615500000000     0.000000000000     0          
O        O      0.567150000000     0.634300000000     0.000000000000     0          
T        Si     0.539000000000     0.645350000000     0.372450000000     0          
T        Si     0.855100000000     0.779600000000     0.157200000000     0          
T        Si     0.540400000000     0.735150000000     0.398750000000     0          
T        Si     0.539850000000     0.734450000000     0.286250000000     0          
T        Si     0.871750000000     0.812650000000     0.065800000000     0          
T        Si     0.539550000000     0.648250000000     0.000000000000     0          
O        O      0.935550000000     0.564500000000     0.370200000000     0          
O        O      0.874500000000     0.553350000000     0.349400000000     0          
O        O      0.883800000000     0.500000000000     0.361800000000     0          
O        O      0.881100000000     0.538200000000     0.408300000000     0          
O        O      0.565000000000     0.824500000000     0.131400000000     0          
O        O      0.566250000000     0.838100000000     0.192050000000     0          
O        O      0.616800000000     0.883200000000     0.154850000000     0          
O        O      0.832700000000     0.552100000000     0.427600000000     0          
O        O      0.791600000000     0.500000000000     0.389950000000     0          
O        O      0.772400000000     0.544850000000     0.408900000000     0          
O        O      0.817950000000     0.543750000000     0.250000000000     0          
O        O      0.774800000000     0.549600000000     0.289150000000     0          
O        O      0.790750000000     0.500000000000     0.297700000000     0          
O        O      0.600450000000     0.899500000000     0.068450000000     0          
O        O      0.545400000000     0.873650000000     0.031000000000     0          
O        O      0.884500000000     0.500000000000     0.000000000000     0          
O        O      0.932850000000     0.567150000000     0.000000000000     0          
T        Si     0.893650000000     0.539000000000     0.372450000000     0          
T        Si     0.575500000000     0.855100000000     0.157200000000     0          
T        Si     0.805250000000     0.540400000000     0.398750000000     0          
T        Si     0.805400000000     0.539850000000     0.286250000000     0          
T        Si     0.559100000000     0.871750000000     0.065800000000     0          
T        Si     0.891300000000     0.539550000000     0.000000000000     0          
O        O      0.871050000000     0.935550000000     0.370200000000     0          
O        O      0.821150000000     0.874500000000     0.349400000000     0          
O        O      0.883800000000     0.883800000000     0.361800000000     0          
O        O      0.842900000000     0.881100000000     0.408300000000     0          
O        O      0.740500000000     0.565000000000     0.131400000000     0          
O        O      0.728150000000     0.566250000000     0.192050000000     0          
O        O      0.733600000000     0.616800000000     0.154850000000     0          
O        O      0.780600000000     0.832700000000     0.427600000000     0          
O        O      0.791600000000     0.791600000000     0.389950000000     0          
O        O      0.727550000000     0.772400000000     0.408900000000     0          
O        O      0.774200000000     0.817950000000     0.250000000000     0          
O        O      0.725200000000     0.774800000000     0.289150000000     0          
O        O      0.790750000000     0.790750000000     0.297700000000     0          
O        O      0.700950000000     0.600450000000     0.068450000000     0          
O        O      0.671750000000     0.545400000000     0.031000000000     0          
O        O      0.884500000000     0.884500000000     0.000000000000     0          
O        O      0.865700000000     0.932850000000     0.000000000000     0          
T        Si     0.854650000000     0.893650000000     0.372450000000     0          
T        Si     0.720400000000     0.575500000000     0.157200000000     0          
T        Si     0.764850000000     0.805250000000     0.398750000000     0          
T        Si     0.765550000000     0.805400000000     0.286250000000     0          
T        Si     0.687350000000     0.559100000000     0.065800000000     0          
T        Si     0.851750000000     0.891300000000     0.000000000000     0          
O        O      0.935500000000     0.871050000000     0.370200000000     0          
O        O      0.946650000000     0.821150000000     0.349400000000     0          
O        O      0.500000000000     0.883800000000     0.361800000000     0          
O        O      0.961800000000     0.842900000000     0.408300000000     0          
O        O      0.675500000000     0.740500000000     0.131400000000     0          
O        O      0.661900000000     0.728150000000     0.192050000000     0          
O        O      0.616800000000     0.733600000000     0.154850000000     0          
O        O      0.947900000000     0.780600000000     0.427600000000     0          
O        O      0.500000000000     0.791600000000     0.389950000000     0          
O        O      0.955150000000     0.727550000000     0.408900000000     0          
O        O      0.956250000000     0.774200000000     0.250000000000     0          
O        O      0.950400000000     0.725200000000     0.289150000000     0          
O        O      0.500000000000     0.790750000000     0.297700000000     0          
O        O      0.600500000000     0.700950000000     0.068450000000     0          
O        O      0.626350000000     0.671750000000     0.031000000000     0          
O        O      0.500000000000     0.884500000000     0.000000000000     0          
O        O      0.932850000000     0.865700000000     0.000000000000     0          
T        Si     0.961000000000     0.854650000000     0.372450000000     0          
T        Si     0.644900000000     0.720400000000     0.157200000000     0          
T        Si     0.959600000000     0.764850000000     0.398750000000     0          
T        Si     0.960150000000     0.765550000000     0.286250000000     0          
T        Si     0.628250000000     0.687350000000     0.065800000000     0          
T        Si     0.960450000000     0.851750000000     0.000000000000     0          
O        O      0.564450000000     0.935500000000     0.370200000000     0          
O        O      0.625500000000     0.946650000000     0.349400000000     0          
O        O      0.616200000000     0.500000000000     0.361800000000     0          
O        O      0.618900000000     0.961800000000     0.408300000000     0          
O        O      0.935000000000     0.675500000000     0.131400000000     0          
O        O      0.933750000000     0.661900000000     0.192050000000     0          
O        O      0.883200000000     0.616800000000     0.154850000000     0          
O        O      0.667300000000     0.947900000000     0.427600000000     0          
O        O      0.708400000000     0.500000000000     0.389950000000     0          
O        O      0.727600000000     0.955150000000     0.408900000000     0          
O        O      0.682050000000     0.956250000000     0.250000000000     0          
O        O      0.725200000000     0.950400000000     0.289150000000     0          
O        O      0.709250000000     0.500000000000     0.297700000000     0          
O        O      0.899550000000     0.600500000000     0.068450000000     0          
O        O      0.954600000000     0.626350000000     0.031000000000     0          
O        O      0.615500000000     0.500000000000     0.000000000000     0          
O        O      0.567150000000     0.932850000000     0.000000000000     0          
T        Si     0.606350000000     0.961000000000     0.372450000000     0          
T        Si     0.924500000000     0.644900000000     0.157200000000     0          
T        Si     0.694750000000     0.959600000000     0.398750000000     0          
T        Si     0.694600000000     0.960150000000     0.286250000000     0          
T        Si     0.940900000000     0.628250000000     0.065800000000     0          
T        Si     0.608700000000     0.960450000000     0.000000000000     0          
O        O      0.628950000000     0.564450000000     0.370200000000     0          
O        O      0.678850000000     0.625500000000     0.349400000000     0          
O        O      0.616200000000     0.616200000000     0.361800000000     0          
O        O      0.657100000000     0.618900000000     0.408300000000     0          
O        O      0.759500000000     0.935000000000     0.131400000000     0          
O        O      0.771850000000     0.933750000000     0.192050000000     0          
O        O      0.766400000000     0.883200000000     0.154850000000     0          
O        O      0.719400000000     0.667300000000     0.427600000000     0          
O        O      0.708400000000     0.708400000000     0.389950000000     0          
O        O      0.772450000000     0.727600000000     0.408900000000     0          
O        O      0.725800000000     0.682050000000     0.250000000000     0          
O        O      0.774800000000     0.725200000000     0.289150000000     0          
O        O      0.709250000000     0.709250000000     0.297700000000     0          
O        O      0.799050000000     0.899550000000     0.068450000000     0          
O        O      0.828250000000     0.954600000000     0.031000000000     0          
O        O      0.615500000000     0.615500000000     0.000000000000     0          
O        O      0.634300000000     0.567150000000     0.000000000000     0          
T        Si     0.645350000000     0.606350000000     0.372450000000     0          
T        Si     0.779600000000     0.924500000000     0.157200000000     0          
T        Si     0.735150000000     0.694750000000     0.398750000000     0          
T        Si     0.734450000000     0.694600000000     0.286250000000     0          
T        Si     0.812650000000     0.940900000000     0.065800000000     0          
T        Si     0.648250000000     0.608700000000     0.000000000000     0          
O        O      0.871050000000     0.935500000000     0.129800000000     0          
O        O      0.821150000000     0.946650000000     0.150600000000     0          
O        O      0.883800000000     0.500000000000     0.138200000000     0          
O        O      0.842900000000     0.961800000000     0.091700000000     0          
O        O      0.740500000000     0.675500000000     0.368600000000     0          
O        O      0.728150000000     0.661900000000     0.307950000000     0          
O        O      0.733600000000     0.616800000000     0.345150000000     0          
O        O      0.780600000000     0.947900000000     0.072400000000     0          
O        O      0.791600000000     0.500000000000     0.110050000000     0          
O        O      0.727550000000     0.955150000000     0.091100000000     0          
O        O      0.774200000000     0.956250000000     0.250000000000     0          
O        O      0.725200000000     0.950400000000     0.210850000000     0          
O        O      0.790750000000     0.500000000000     0.202300000000     0          
O        O      0.700950000000     0.600500000000     0.431550000000     0          
O        O      0.671750000000     0.626350000000     0.469000000000     0          
T        Si     0.854650000000     0.961000000000     0.127550000000     0          
T        Si     0.720400000000     0.644900000000     0.342800000000     0          
T        Si     0.764850000000     0.959600000000     0.101250000000     0          
T        Si     0.765550000000     0.960150000000     0.213750000000     0          
T        Si     0.687350000000     0.628250000000     0.434200000000     0          
T        Si     0.851750000000     0.960450000000     0.000000000000     0          
O        O      0.935550000000     0.871050000000     0.129800000000     0          
O        O      0.874500000000     0.821150000000     0.150600000000     0          
O        O      0.883800000000     0.883800000000     0.138200000000     0          
O        O      0.881100000000     0.842900000000     0.091700000000     0          
O        O      0.565000000000     0.740500000000     0.368600000000     0          
O        O      0.566250000000     0.728150000000     0.307950000000     0          
O        O      0.616800000000     0.733600000000     0.345150000000     0          
O        O      0.832700000000     0.780600000000     0.072400000000     0          
O        O      0.791600000000     0.791600000000     0.110050000000     0          
O        O      0.772400000000     0.727550000000     0.091100000000     0          
O        O      0.817950000000     0.774200000000     0.250000000000     0          
O        O      0.774800000000     0.725200000000     0.210850000000     0          
O        O      0.790750000000     0.790750000000     0.202300000000     0          
O        O      0.600450000000     0.700950000000     0.431550000000     0          
O        O      0.545400000000     0.671750000000     0.469000000000     0          
T        Si     0.893650000000     0.854650000000     0.127550000000     0          
T        Si     0.575500000000     0.720400000000     0.342800000000     0          
T        Si     0.805250000000     0.764850000000     0.101250000000     0          
T        Si     0.805400000000     0.765550000000     0.213750000000     0          
T        Si     0.559100000000     0.687350000000     0.434200000000     0          
T        Si     0.891300000000     0.851750000000     0.000000000000     0          
O        O      0.564500000000     0.935550000000     0.129800000000     0          
O        O      0.553350000000     0.874500000000     0.150600000000     0          
O        O      0.500000000000     0.883800000000     0.138200000000     0          
O        O      0.538200000000     0.881100000000     0.091700000000     0          
O        O      0.824500000000     0.565000000000     0.368600000000     0          
O        O      0.838100000000     0.566250000000     0.307950000000     0          
O        O      0.883200000000     0.616800000000     0.345150000000     0          
O        O      0.552100000000     0.832700000000     0.072400000000     0          
O        O      0.500000000000     0.791600000000     0.110050000000     0          
O        O      0.544850000000     0.772400000000     0.091100000000     0          
O        O      0.543750000000     0.817950000000     0.250000000000     0          
O        O      0.549600000000     0.774800000000     0.210850000000     0          
O        O      0.500000000000     0.790750000000     0.202300000000     0          
O        O      0.899500000000     0.600450000000     0.431550000000     0          
O        O      0.873650000000     0.545400000000     0.469000000000     0          
T        Si     0.539000000000     0.893650000000     0.127550000000     0          
T        Si     0.855100000000     0.575500000000     0.342800000000     0          
T        Si     0.540400000000     0.805250000000     0.101250000000     0          
T        Si     0.539850000000     0.805400000000     0.213750000000     0          
T        Si     0.871750000000     0.559100000000     0.434200000000     0          
T        Si     0.539550000000     0.891300000000     0.000000000000     0          
O        O      0.628950000000     0.564500000000     0.129800000000     0          
O        O      0.678850000000     0.553350000000     0.150600000000     0          
O        O      0.616200000000     0.500000000000     0.138200000000     0          
O        O      0.657100000000     0.538200000000     0.091700000000     0          
O        O      0.759500000000     0.824500000000     0.368600000000     0          
O        O      0.771850000000     0.838100000000     0.307950000000     0          
O        O      0.766400000000     0.883200000000     0.345150000000     0          
O        O      0.719400000000     0.552100000000     0.072400000000     0          
O        O      0.708400000000     0.500000000000     0.110050000000     0          
O        O      0.772450000000     0.544850000000     0.091100000000     0          
O        O      0.725800000000     0.543750000000     0.250000000000     0          
O        O      0.774800000000     0.549600000000     0.210850000000     0          
O        O      0.709250000000     0.500000000000     0.202300000000     0          
O        O      0.799050000000     0.899500000000     0.431550000000     0          
O        O      0.828250000000     0.873650000000     0.469000000000     0          
T        Si     0.645350000000     0.539000000000     0.127550000000     0          
T        Si     0.779600000000     0.855100000000     0.342800000000     0          
T        Si     0.735150000000     0.540400000000     0.101250000000     0          
T        Si     0.734450000000     0.539850000000     0.213750000000     0          
T        Si     0.812650000000     0.871750000000     0.434200000000     0          
T        Si     0.648250000000     0.539550000000     0.000000000000     0          
O        O      0.564450000000     0.628950000000     0.129800000000     0          
O        O      0.625500000000     0.678850000000     0.150600000000     0          
O        O      0.616200000000     0.616200000000     0.138200000000     0          
O        O      0.618900000000     0.657100000000     0.091700000000     0          
O        O      0.935000000000     0.759500000000     0.368600000000     0          
O        O      0.933750000000     0.771850000000     0.307950000000     0          
O        O      0.883200000000     0.766400000000     0.345150000000     0          
O        O      0.667300000000     0.719400000000     0.072400000000     0          
O        O      0.708400000000     0.708400000000     0.110050000000     0          
O        O      0.727600000000     0.772450000000     0.091100000000     0          
O        O      0.682050000000     0.725800000000     0.250000000000     0          
O        O      0.725200000000     0.774800000000     0.210850000000     0          
O        O      0.709250000000     0.709250000000     0.202300000000     0          
O        O      0.899550000000     0.799050000000     0.431550000000     0          
O        O      0.954600000000     0.828250000000     0.469000000000     0          
T        Si     0.606350000000     0.645350000000     0.127550000000     0          
T        Si     0.924500000000     0.779600000000     0.342800000000     0          
T        Si     0.694750000000     0.735150000000     0.101250000000     0          
T        Si     0.694600000000     0.734450000000     0.213750000000     0          
T        Si     0.940900000000     0.812650000000     0.434200000000     0          
T        Si     0.608700000000     0.648250000000     0.000000000000     0          
O        O      0.935500000000     0.564450000000     0.129800000000     0          
O        O      0.946650000000     0.625500000000     0.150600000000     0          
O        O      0.500000000000     0.616200000000     0.138200000000     0          
O        O      0.961800000000     0.618900000000     0.091700000000     0          
O        O      0.675500000000     0.935000000000     0.368600000000     0          
O        O      0.661900000000     0.933750000000     0.307950000000     0          
O        O      0.616800000000     0.883200000000     0.345150000000     0          
O        O      0.947900000000     0.667300000000     0.072400000000     0          
O        O      0.500000000000     0.708400000000     0.110050000000     0          
O        O      0.955150000000     0.727600000000     0.091100000000     0          
O        O      0.956250000000     0.682050000000     0.250000000000     0          
O        O      0.950400000000     0.725200000000     0.210850000000     0          
O        O      0.500000000000     0.709250000000     0.202300000000     0          
O        O      0.600500000000     0.899550000000     0.431550000000     0          
O        O      0.626350000000     0.954600000000     0.469000000000     0          
T        Si     0.961000000000     0.606350000000     0.127550000000     0          
T        Si     0.644900000000     0.924500000000     0.342800000000     0          
T        Si     0.959600000000     0.694750000000     0.101250000000     0          
T        Si     0.960150000000     0.694600000000     0.213750000000     0          
T        Si     0.628250000000     0.940900000000     0.434200000000     0          
T        Si     0.960450000000     0.608700000000     0.000000000000     0          
O        O      0.946650000000     0.821150000000     0.150600000000     0          
O        O      0.961800000000     0.842900000000     0.091700000000     0          
O        O      0.675500000000     0.740500000000     0.368600000000     0          
O        O      0.661900000000     0.728150000000     0.307950000000     0          
O        O      0.947900000000     0.780600000000     0.072400000000     0          
O        O      0.626350000000     0.671750000000     0.469000000000     0          
T        Si     0.961000000000     0.854650000000     0.127550000000     0          
T        Si     0.644900000000     0.720400000000     0.342800000000     0          
T        Si     0.959600000000     0.764850000000     0.101250000000     0          
T        Si     0.960150000000     0.765550000000     0.213750000000     0          
T        Si     0.628250000000     0.687350000000     0.434200000000     0          
O        O      0.625500000000     0.946650000000     0.150600000000     0          
O        O      0.618900000000     0.961800000000     0.091700000000     0          
O        O      0.935000000000     0.675500000000     0.368600000000     0          
O        O      0.933750000000     0.661900000000     0.307950000000     0          
O        O      0.667300000000     0.947900000000     0.072400000000     0          
O        O      0.954600000000     0.626350000000     0.469000000000     0          
T        Si     0.606350000000     0.961000000000     0.127550000000     0          
T        Si     0.924500000000     0.644900000000     0.342800000000     0          
T        Si     0.694750000000     0.959600000000     0.101250000000     0          
T        Si     0.694600000000     0.960150000000     0.213750000000     0          
T        Si     0.940900000000     0.628250000000     0.434200000000     0          
O        O      0.678850000000     0.625500000000     0.150600000000     0          
O        O      0.657100000000     0.618900000000     0.091700000000     0          
O        O      0.759500000000     0.935000000000     0.368600000000     0          
O        O      0.771850000000     0.933750000000     0.307950000000     0          
O        O      0.719400000000     0.667300000000     0.072400000000     0          
O        O      0.828250000000     0.954600000000     0.469000000000     0          
T        Si     0.645350000000     0.606350000000     0.127550000000     0          
T        Si     0.779600000000     0.924500000000     0.342800000000     0          
T        Si     0.735150000000     0.694750000000     0.101250000000     0          
T        Si     0.734450000000     0.694600000000     0.213750000000     0          
T        Si     0.812650000000     0.940900000000     0.434200000000     0          
O        O      0.553350000000     0.678850000000     0.150600000000     0          
O        O      0.538200000000     0.657100000000     0.091700000000     0          
O        O      0.824500000000     0.759500000000     0.368600000000     0          
O        O      0.838100000000     0.771850000000     0.307950000000     0          
O        O      0.552100000000     0.719400000000     0.072400000000     0          
O        O      0.873650000000     0.828250000000     0.469000000000     0          
T        Si     0.539000000000     0.645350000000     0.127550000000     0          
T        Si     0.855100000000     0.779600000000     0.342800000000     0          
T        Si     0.540400000000     0.735150000000     0.101250000000     0          
T        Si     0.539850000000     0.734450000000     0.213750000000     0          
T        Si     0.871750000000     0.812650000000     0.434200000000     0          
O        O      0.874500000000     0.553350000000     0.150600000000     0          
O        O      0.881100000000     0.538200000000     0.091700000000     0          
O        O      0.565000000000     0.824500000000     0.368600000000     0          
O        O      0.566250000000     0.838100000000     0.307950000000     0          
O        O      0.832700000000     0.552100000000     0.072400000000     0          
O        O      0.545400000000     0.873650000000     0.469000000000     0          
T        Si     0.893650000000     0.539000000000     0.127550000000     0          
T        Si     0.575500000000     0.855100000000     0.342800000000     0          
T        Si     0.805250000000     0.540400000000     0.101250000000     0          
T        Si     0.805400000000     0.539850000000     0.213750000000     0          
T        Si     0.559100000000     0.871750000000     0.434200000000     0          
O        O      0.821150000000     0.874500000000     0.150600000000     0          
O        O      0.842900000000     0.881100000000     0.091700000000     0          
O        O      0.740500000000     0.565000000000     0.368600000000     0          
O        O      0.728150000000     0.566250000000     0.307950000000     0          
O        O      0.780600000000     0.832700000000     0.072400000000     0          
O        O      0.671750000000     0.545400000000     0.469000000000     0          
T        Si     0.854650000000     0.893650000000     0.127550000000     0          
T        Si     0.720400000000     0.575500000000     0.342800000000     0          
T        Si     0.764850000000     0.805250000000     0.101250000000     0          
T        Si     0.765550000000     0.805400000000     0.213750000000     0          
T        Si     0.687350000000     0.559100000000     0.434200000000     0          
O        O      0.678850000000     0.553350000000     0.349400000000     0          
O        O      0.657100000000     0.538200000000     0.408300000000     0          
O        O      0.759500000000     0.824500000000     0.131400000000     0          
O        O      0.771850000000     0.838100000000     0.192050000000     0          
O        O      0.719400000000     0.552100000000     0.427600000000     0          
O        O      0.828250000000     0.873650000000     0.031000000000     0          
T        Si     0.645350000000     0.539000000000     0.372450000000     0          
T        Si     0.779600000000     0.855100000000     0.157200000000     0          
T        Si     0.735150000000     0.540400000000     0.398750000000     0          
T        Si     0.734450000000     0.539850000000     0.286250000000     0          
T        Si     0.812650000000     0.871750000000     0.065800000000     0          
O        O      0.625500000000     0.678850000000     0.349400000000     0          
O        O      0.618900000000     0.657100000000     0.408300000000     0          
O        O      0.935000000000     0.759500000000     0.131400000000     0          
O        O      0.933750000000     0.771850000000     0.192050000000     0          
O        O      0.667300000000     0.719400000000     0.427600000000     0          
O        O      0.954600000000     0.828250000000     0.031000000000     0          
T        Si     0.606350000000     0.645350000000     0.372450000000     0          
T        Si     0.924500000000     0.779600000000     0.157200000000     0          
T        Si     0.694750000000     0.735150000000     0.398750000000     0          
T        Si     0.694600000000     0.734450000000     0.286250000000     0          
T        Si     0.940900000000     0.812650000000     0.065800000000     0          
O        O      0.946650000000     0.625500000000     0.349400000000     0          
O        O      0.961800000000     0.618900000000     0.408300000000     0          
O        O      0.675500000000     0.935000000000     0.131400000000     0          
O        O      0.661900000000     0.933750000000     0.192050000000     0          
O        O      0.947900000000     0.667300000000     0.427600000000     0          
O        O      0.626350000000     0.954600000000     0.031000000000     0          
T        Si     0.961000000000     0.606350000000     0.372450000000     0          
T        Si     0.644900000000     0.924500000000     0.157200000000     0          
T        Si     0.959600000000     0.694750000000     0.398750000000     0          
T        Si     0.960150000000     0.694600000000     0.286250000000     0          
T        Si     0.628250000000     0.940900000000     0.065800000000     0          
O        O      0.821150000000     0.946650000000     0.349400000000     0          
O        O      0.842900000000     0.961800000000     0.408300000000     0          
O        O      0.740500000000     0.675500000000     0.131400000000     0          
O        O      0.728150000000     0.661900000000     0.192050000000     0          
O        O      0.780600000000     0.947900000000     0.427600000000     0          
O        O      0.671750000000     0.626350000000     0.031000000000     0          
T        Si     0.854650000000     0.961000000000     0.372450000000     0          
T        Si     0.720400000000     0.644900000000     0.157200000000     0          
T        Si     0.764850000000     0.959600000000     0.398750000000     0          
T        Si     0.765550000000     0.960150000000     0.286250000000     0          
T        Si     0.687350000000     0.628250000000     0.065800000000     0          
O        O      0.874500000000     0.821150000000     0.349400000000     0          
O        O      0.881100000000     0.842900000000     0.408300000000     0          
O        O      0.565000000000     0.740500000000     0.131400000000     0          
O        O      0.566250000000     0.728150000000     0.192050000000     0          
O        O      0.832700000000     0.780600000000     0.427600000000     0          
O        O      0.545400000000     0.671750000000     0.031000000000     0          
T        Si     0.893650000000     0.854650000000     0.372450000000     0          
T        Si     0.575500000000     0.720400000000     0.157200000000     0          
T        Si     0.805250000000     0.764850000000     0.398750000000     0          
T        Si     0.805400000000     0.765550000000     0.286250000000     0          
T        Si     0.559100000000     0.687350000000     0.065800000000     0          
O        O      0.553350000000     0.874500000000     0.349400000000     0          
O        O      0.538200000000     0.881100000000     0.408300000000     0          
O        O      0.824500000000     0.565000000000     0.131400000000     0          
O        O      0.838100000000     0.566250000000     0.192050000000     0          
O        O      0.552100000000     0.832700000000     0.427600000000     0          
O        O      0.873650000000     0.545400000000     0.031000000000     0          
T        Si     0.539000000000     0.893650000000     0.372450000000     0          
T        Si     0.855100000000     0.575500000000     0.157200000000     0          
T        Si     0.540400000000     0.805250000000     0.398750000000     0          
T        Si     0.539850000000     0.805400000000     0.286250000000     0          
T        Si     0.871750000000     0.559100000000     0.065800000000     0          
O        O      0.564500000000     0.628950000000     0.870200000000     0          
O        O      0.553350000000     0.678850000000     0.849400000000     0          
O        O      0.500000000000     0.616200000000     0.861800000000     0          
O        O      0.538200000000     0.657100000000     0.908300000000     0          
O        O      0.824500000000     0.759500000000     0.631400000000     0          
O        O      0.838100000000     0.771850000000     0.692050000000     0          
O        O      0.883200000000     0.766400000000     0.654850000000     0          
O        O      0.552100000000     0.719400000000     0.927600000000     0          
O        O      0.500000000000     0.708400000000     0.889950000000     0          
O        O      0.544850000000     0.772450000000     0.908900000000     0          
O        O      0.543750000000     0.725800000000     0.750000000000     0          
O        O      0.549600000000     0.774800000000     0.789150000000     0          
O        O      0.500000000000     0.709250000000     0.797700000000     0          
O        O      0.899500000000     0.799050000000     0.568450000000     0          
O        O      0.873650000000     0.828250000000     0.531000000000     0          
O        O      0.500000000000     0.615500000000     0.500000000000     0          
O        O      0.567150000000     0.634300000000     0.500000000000     0          
T        Si     0.539000000000     0.645350000000     0.872450000000     0          
T        Si     0.855100000000     0.779600000000     0.657200000000     0          
T        Si     0.540400000000     0.735150000000     0.898750000000     0          
T        Si     0.539850000000     0.734450000000     0.786250000000     0          
T        Si     0.871750000000     0.812650000000     0.565800000000     0          
T        Si     0.539550000000     0.648250000000     0.500000000000     0          
O        O      0.935550000000     0.564500000000     0.870200000000     0          
O        O      0.874500000000     0.553350000000     0.849400000000     0          
O        O      0.883800000000     0.500000000000     0.861800000000     0          
O        O      0.881100000000     0.538200000000     0.908300000000     0          
O        O      0.565000000000     0.824500000000     0.631400000000     0          
O        O      0.566250000000     0.838100000000     0.692050000000     0          
O        O      0.616800000000     0.883200000000     0.654850000000     0          
O        O      0.832700000000     0.552100000000     0.927600000000     0          
O        O      0.791600000000     0.500000000000     0.889950000000     0          
O        O      0.772400000000     0.544850000000     0.908900000000     0          
O        O      0.817950000000     0.543750000000     0.750000000000     0          
O        O      0.774800000000     0.549600000000     0.789150000000     0          
O        O      0.790750000000     0.500000000000     0.797700000000     0          
O        O      0.600450000000     0.899500000000     0.568450000000     0          
O        O      0.545400000000     0.873650000000     0.531000000000     0          
O        O      0.884500000000     0.500000000000     0.500000000000     0          
O        O      0.932850000000     0.567150000000     0.500000000000     0          
T        Si     0.893650000000     0.539000000000     0.872450000000     0          
T        Si     0.575500000000     0.855100000000     0.657200000000     0          
T        Si     0.805250000000     0.540400000000     0.898750000000     0          
T        Si     0.805400000000     0.539850000000     0.786250000000     0          
T        Si     0.559100000000     0.871750000000     0.565800000000     0          
T        Si     0.891300000000     0.539550000000     0.500000000000     0          
O        O      0.871050000000     0.935550000000     0.870200000000     0          
O        O      0.821150000000     0.874500000000     0.849400000000     0          
O        O      0.883800000000     0.883800000000     0.861800000000     0          
O        O      0.842900000000     0.881100000000     0.908300000000     0          
O        O      0.740500000000     0.565000000000     0.631400000000     0          
O        O      0.728150000000     0.566250000000     0.692050000000     0          
O        O      0.733600000000     0.616800000000     0.654850000000     0          
O        O      0.780600000000     0.832700000000     0.927600000000     0          
O        O      0.791600000000     0.791600000000     0.889950000000     0          
O        O      0.727550000000     0.772400000000     0.908900000000     0          
O        O      0.774200000000     0.817950000000     0.750000000000     0          
O        O      0.725200000000     0.774800000000     0.789150000000     0          
O        O      0.790750000000     0.790750000000     0.797700000000     0          
O        O      0.700950000000     0.600450000000     0.568450000000     0          
O        O      0.671750000000     0.545400000000     0.531000000000     0          
O        O      0.884500000000     0.884500000000     0.500000000000     0          
O        O      0.865700000000     0.932850000000     0.500000000000     0          
T        Si     0.854650000000     0.893650000000     0.872450000000     0          
T        Si     0.720400000000     0.575500000000     0.657200000000     0          
T        Si     0.764850000000     0.805250000000     0.898750000000     0          
T        Si     0.765550000000     0.805400000000     0.786250000000     0          
T        Si     0.687350000000     0.559100000000     0.565800000000     0          
T        Si     0.851750000000     0.891300000000     0.500000000000     0          
O        O      0.935500000000     0.871050000000     0.870200000000     0          
O        O      0.946650000000     0.821150000000     0.849400000000     0          
O        O      0.500000000000     0.883800000000     0.861800000000     0          
O        O      0.961800000000     0.842900000000     0.908300000000     0          
O        O      0.675500000000     0.740500000000     0.631400000000     0          
O        O      0.661900000000     0.728150000000     0.692050000000     0          
O        O      0.616800000000     0.733600000000     0.654850000000     0          
O        O      0.947900000000     0.780600000000     0.927600000000     0          
O        O      0.500000000000     0.791600000000     0.889950000000     0          
O        O      0.955150000000     0.727550000000     0.908900000000     0          
O        O      0.956250000000     0.774200000000     0.750000000000     0          
O        O      0.950400000000     0.725200000000     0.789150000000     0          
O        O      0.500000000000     0.790750000000     0.797700000000     0          
O        O      0.600500000000     0.700950000000     0.568450000000     0          
O        O      0.626350000000     0.671750000000     0.531000000000     0          
O        O      0.500000000000     0.884500000000     0.500000000000     0          
O        O      0.932850000000     0.865700000000     0.500000000000     0          
T        Si     0.961000000000     0.854650000000     0.872450000000     0          
T        Si     0.644900000000     0.720400000000     0.657200000000     0          
T        Si     0.959600000000     0.764850000000     0.898750000000     0          
T        Si     0.960150000000     0.765550000000     0.786250000000     0          
T        Si     0.628250000000     0.687350000000     0.565800000000     0          
T        Si     0.960450000000     0.851750000000     0.500000000000     0          
O        O      0.564450000000     0.935500000000     0.870200000000     0          
O        O      0.625500000000     0.946650000000     0.849400000000     0          
O        O      0.616200000000     0.500000000000     0.861800000000     0          
O        O      0.618900000000     0.961800000000     0.908300000000     0          
O        O      0.935000000000     0.675500000000     0.631400000000     0          
O        O      0.933750000000     0.661900000000     0.692050000000     0          
O        O      0.883200000000     0.616800000000     0.654850000000     0          
O        O      0.667300000000     0.947900000000     0.927600000000     0          
O        O      0.708400000000     0.500000000000     0.889950000000     0          
O        O      0.727600000000     0.955150000000     0.908900000000     0          
O        O      0.682050000000     0.956250000000     0.750000000000     0          
O        O      0.725200000000     0.950400000000     0.789150000000     0          
O        O      0.709250000000     0.500000000000     0.797700000000     0          
O        O      0.899550000000     0.600500000000     0.568450000000     0          
O        O      0.954600000000     0.626350000000     0.531000000000     0          
O        O      0.615500000000     0.500000000000     0.500000000000     0          
O        O      0.567150000000     0.932850000000     0.500000000000     0          
T        Si     0.606350000000     0.961000000000     0.872450000000     0          
T        Si     0.924500000000     0.644900000000     0.657200000000     0          
T        Si     0.694750000000     0.959600000000     0.898750000000     0          
T        Si     0.694600000000     0.960150000000     0.786250000000     0          
T        Si     0.940900000000     0.628250000000     0.565800000000     0          
T        Si     0.608700000000     0.960450000000     0.500000000000     0          
O        O      0.628950000000     0.564450000000     0.870200000000     0          
O        O      0.678850000000     0.625500000000     0.849400000000     0          
O        O      0.616200000000     0.616200000000     0.861800000000     0          
O        O      0.657100000000     0.618900000000     0.908300000000     0          
O        O      0.759500000000     0.935000000000     0.631400000000     0          
O        O      0.771850000000     0.933750000000     0.692050000000     0          
O        O      0.766400000000     0.883200000000     0.654850000000     0          
O        O      0.719400000000     0.667300000000     0.927600000000     0          
O        O      0.708400000000     0.708400000000     0.889950000000     0          
O        O      0.772450000000     0.727600000000     0.908900000000     0          
O        O      0.725800000000     0.682050000000     0.750000000000     0          
O        O      0.774800000000     0.725200000000     0.789150000000     0          
O        O      0.709250000000     0.709250000000     0.797700000000     0          
O        O      0.799050000000     0.899550000000     0.568450000000     0          
O        O      0.828250000000     0.954600000000     0.531000000000     0          
O        O      0.615500000000     0.615500000000     0.500000000000     0          
O        O      0.634300000000     0.567150000000     0.500000000000     0          
T        Si     0.645350000000     0.606350000000     0.872450000000     0          
T        Si     0.779600000000     0.924500000000     0.657200000000     0          
T        Si     0.735150000000     0.694750000000     0.898750000000     0          
T        Si     0.734450000000     0.694600000000     0.786250000000     0          
T        Si     0.812650000000     0.940900000000     0.565800000000     0          
T        Si     0.648250000000     0.608700000000     0.500000000000     0          
O        O      0.871050000000     0.935500000000     0.629800000000     0          
O        O      0.821150000000     0.946650000000     0.650600000000     0          
O        O      0.883800000000     0.500000000000     0.638200000000     0          
O        O      0.842900000000     0.961800000000     0.591700000000     0          
O        O      0.740500000000     0.675500000000     0.868600000000     0          
O        O      0.728150000000     0.661900000000     0.807950000000     0          
O        O      0.733600000000     0.616800000000     0.845150000000     0          
O        O      0.780600000000     0.947900000000     0.572400000000     0          
O        O      0.791600000000     0.500000000000     0.610050000000     0          
O        O      0.727550000000     0.955150000000     0.591100000000     0          
O        O      0.774200000000     0.956250000000     0.750000000000     0          
O        O      0.725200000000     0.950400000000     0.710850000000     0          
O        O      0.790750000000     0.500000000000     0.702300000000     0          
O        O      0.700950000000     0.600500000000     0.931550000000     0          
O        O      0.671750000000     0.626350000000     0.969000000000     0          
T        Si     0.854650000000     0.961000000000     0.627550000000     0          
T        Si     0.720400000000     0.644900000000     0.842800000000     0          
T        Si     0.764850000000     0.959600000000     0.601250000000     0          
T        Si     0.765550000000     0.960150000000     0.713750000000     0          
T        Si     0.687350000000     0.628250000000     0.934200000000     0          
T        Si     0.851750000000     0.960450000000     0.500000000000     0          
O        O      0.935550000000     0.871050000000     0.629800000000     0          
O        O      0.874500000000     0.821150000000     0.650600000000     0          
O        O      0.883800000000     0.883800000000     0.638200000000     0          
O        O      0.881100000000     0.842900000000     0.591700000000     0          
O        O      0.565000000000     0.740500000000     0.868600000000     0          
O        O      0.566250000000     0.728150000000     0.807950000000     0          
O        O      0.616800000000     0.733600000000     0.845150000000     0          
O        O      0.832700000000     0.780600000000     0.572400000000     0          
O        O      0.791600000000     0.791600000000     0.610050000000     0          
O        O      0.772400000000     0.727550000000     0.591100000000     0          
O        O      0.817950000000     0.774200000000     0.750000000000     0          
O        O      0.774800000000     0.725200000000     0.710850000000     0          
O        O      0.790750000000     0.790750000000     0.702300000000     0          
O        O      0.600450000000     0.700950000000     0.931550000000     0          
O        O      0.545400000000     0.671750000000     0.969000000000     0          
T        Si     0.893650000000     0.854650000000     0.627550000000     0          
T        Si     0.575500000000     0.720400000000     0.842800000000     0          
T        Si     0.805250000000     0.764850000000     0.601250000000     0          
T        Si     0.805400000000     0.765550000000     0.713750000000     0          
T        Si     0.559100000000     0.687350000000     0.934200000000     0          
T        Si     0.891300000000     0.851750000000     0.500000000000     0          
O        O      0.564500000000     0.935550000000     0.629800000000     0          
O        O      0.553350000000     0.874500000000     0.650600000000     0          
O        O      0.500000000000     0.883800000000     0.638200000000     0          
O        O      0.538200000000     0.881100000000     0.591700000000     0          
O        O      0.824500000000     0.565000000000     0.868600000000     0          
O        O      0.838100000000     0.566250000000     0.807950000000     0          
O        O      0.883200000000     0.616800000000     0.845150000000     0          
O        O      0.552100000000     0.832700000000     0.572400000000     0          
O        O      0.500000000000     0.791600000000     0.610050000000     0          
O        O      0.544850000000     0.772400000000     0.591100000000     0          
O        O      0.543750000000     0.817950000000     0.750000000000     0          
O        O      0.549600000000     0.774800000000     0.710850000000     0          
O        O      0.500000000000     0.790750000000     0.702300000000     0          
O        O      0.899500000000     0.600450000000     0.931550000000     0          
O        O      0.873650000000     0.545400000000     0.969000000000     0          
T        Si     0.539000000000     0.893650000000     0.627550000000     0          
T        Si     0.855100000000     0.575500000000     0.842800000000     0          
T        Si     0.540400000000     0.805250000000     0.601250000000     0          
T        Si     0.539850000000     0.805400000000     0.713750000000     0          
T        Si     0.871750000000     0.559100000000     0.934200000000     0          
T        Si     0.539550000000     0.891300000000     0.500000000000     0          
O        O      0.628950000000     0.564500000000     0.629800000000     0          
O        O      0.678850000000     0.553350000000     0.650600000000     0          
O        O      0.616200000000     0.500000000000     0.638200000000     0          
O        O      0.657100000000     0.538200000000     0.591700000000     0          
O        O      0.759500000000     0.824500000000     0.868600000000     0          
O        O      0.771850000000     0.838100000000     0.807950000000     0          
O        O      0.766400000000     0.883200000000     0.845150000000     0          
O        O      0.719400000000     0.552100000000     0.572400000000     0          
O        O      0.708400000000     0.500000000000     0.610050000000     0          
O        O      0.772450000000     0.544850000000     0.591100000000     0          
O        O      0.725800000000     0.543750000000     0.750000000000     0          
O        O      0.774800000000     0.549600000000     0.710850000000     0          
O        O      0.709250000000     0.500000000000     0.702300000000     0          
O        O      0.799050000000     0.899500000000     0.931550000000     0          
O        O      0.828250000000     0.873650000000     0.969000000000     0          
T        Si     0.645350000000     0.539000000000     0.627550000000     0          
T        Si     0.779600000000     0.855100000000     0.842800000000     0          
T        Si     0.735150000000     0.540400000000     0.601250000000     0          
T        Si     0.734450000000     0.539850000000     0.713750000000     0          
T        Si     0.812650000000     0.871750000000     0.934200000000     0          
T        Si     0.648250000000     0.539550000000     0.500000000000     0          
O        O      0.564450000000     0.628950000000     0.629800000000     0          
O        O      0.625500000000     0.678850000000     0.650600000000     0          
O        O      0.616200000000     0.616200000000     0.638200000000     0          
O        O      0.618900000000     0.657100000000     0.591700000000     0          
O        O      0.935000000000     0.759500000000     0.868600000000     0          
O        O      0.933750000000     0.771850000000     0.807950000000     0          
O        O      0.883200000000     0.766400000000     0.845150000000     0          
O        O      0.667300000000     0.719400000000     0.572400000000     0          
O        O      0.708400000000     0.708400000000     0.610050000000     0          
O        O      0.727600000000     0.772450000000     0.591100000000     0          
O        O      0.682050000000     0.725800000000     0.750000000000     0          
O        O      0.725200000000     0.774800000000     0.710850000000     0          
O        O      0.709250000000     0.709250000000     0.702300000000     0          
O        O      0.899550000000     0.799050000000     0.931550000000     0          
O        O      0.954600000000     0.828250000000     0.969000000000     0          
T        Si     0.606350000000     0.645350000000     0.627550000000     0          
T        Si     0.924500000000     0.779600000000     0.842800000000     0          
T        Si     0.694750000000     0.735150000000     0.601250000000     0          
T        Si     0.694600000000     0.734450000000     0.713750000000     0          
T        Si     0.940900000000     0.812650000000     0.934200000000     0          
T        Si     0.608700000000     0.648250000000     0.500000000000     0          
O        O      0.935500000000     0.564450000000     0.629800000000     0          
O        O      0.946650000000     0.625500000000     0.650600000000     0          
O        O      0.500000000000     0.616200000000     0.638200000000     0          
O        O      0.961800000000     0.618900000000     0.591700000000     0          
O        O      0.675500000000     0.935000000000     0.868600000000     0          
O        O      0.661900000000     0.933750000000     0.807950000000     0          
O        O      0.616800000000     0.883200000000     0.845150000000     0          
O        O      0.947900000000     0.667300000000     0.572400000000     0          
O        O      0.500000000000     0.708400000000     0.610050000000     0          
O        O      0.955150000000     0.727600000000     0.591100000000     0          
O        O      0.956250000000     0.682050000000     0.750000000000     0          
O        O      0.950400000000     0.725200000000     0.710850000000     0          
O        O      0.500000000000     0.709250000000     0.702300000000     0          
O        O      0.600500000000     0.899550000000     0.931550000000     0          
O        O      0.626350000000     0.954600000000     0.969000000000     0          
T        Si     0.961000000000     0.606350000000     0.627550000000     0          
T        Si     0.644900000000     0.924500000000     0.842800000000     0          
T        Si     0.959600000000     0.694750000000     0.601250000000     0          
T        Si     0.960150000000     0.694600000000     0.713750000000     0          
T        Si     0.628250000000     0.940900000000     0.934200000000     0          
T        Si     0.960450000000     0.608700000000     0.500000000000     0          
O        O      0.946650000000     0.821150000000     0.650600000000     0          
O        O      0.961800000000     0.842900000000     0.591700000000     0          
O        O      0.675500000000     0.740500000000     0.868600000000     0          
O        O      0.661900000000     0.728150000000     0.807950000000     0          
O        O      0.947900000000     0.780600000000     0.572400000000     0          
O        O      0.626350000000     0.671750000000     0.969000000000     0          
T        Si     0.961000000000     0.854650000000     0.627550000000     0          
T        Si     0.644900000000     0.720400000000     0.842800000000     0          
T        Si     0.959600000000     0.764850000000     0.601250000000     0          
T        Si     0.960150000000     0.765550000000     0.713750000000     0          
T        Si     0.628250000000     0.687350000000     0.934200000000     0          
O        O      0.625500000000     0.946650000000     0.650600000000     0          
O        O      0.618900000000     0.961800000000     0.591700000000     0          
O        O      0.935000000000     0.675500000000     0.868600000000     0          
O        O      0.933750000000     0.661900000000     0.807950000000     0          
O        O      0.667300000000     0.947900000000     0.572400000000     0          
O        O      0.954600000000     0.626350000000     0.969000000000     0          
T        Si     0.606350000000     0.961000000000     0.627550000000     0          
T        Si     0.924500000000     0.644900000000     0.842800000000     0          
T        Si     0.694750000000     0.959600000000     0.601250000000     0          
T        Si     0.694600000000     0.960150000000     0.713750000000     0          
T        Si     0.940900000000     0.628250000000     0.934200000000     0          
O        O      0.678850000000     0.625500000000     0.650600000000     0          
O        O      0.657100000000     0.618900000000     0.591700000000     0          
O        O      0.759500000000     0.935000000000     0.868600000000     0          
O        O      0.771850000000     0.933750000000     0.807950000000     0          
O        O      0.719400000000     0.667300000000     0.572400000000     0          
O        O      0.828250000000     0.954600000000     0.969000000000     0          
T        Si     0.645350000000     0.606350000000     0.627550000000     0          
T        Si     0.779600000000     0.924500000000     0.842800000000     0          
T        Si     0.735150000000     0.694750000000     0.601250000000     0          
T        Si     0.734450000000     0.694600000000     0.713750000000     0          
T        Si     0.812650000000     0.940900000000     0.934200000000     0          
O        O      0.553350000000     0.678850000000     0.650600000000     0          
O        O      0.538200000000     0.657100000000     0.591700000000     0          
O        O      0.824500000000     0.759500000000     0.868600000000     0          
O        O      0.838100000000     0.771850000000     0.807950000000     0          
O        O      0.552100000000     0.719400000000     0.572400000000     0          
O        O      0.873650000000     0.828250000000     0.969000000000     0          
T        Si     0.539000000000     0.645350000000     0.627550000000     0          
T        Si     0.855100000000     0.779600000000     0.842800000000     0          
T        Si     0.540400000000     0.735150000000     0.601250000000     0          
T        Si     0.539850000000     0.734450000000     0.713750000000     0          
T        Si     0.871750000000     0.812650000000     0.934200000000     0          
O        O      0.874500000000     0.553350000000     0.650600000000     0          
O        O      0.881100000000     0.538200000000     0.591700000000     0          
O        O      0.565000000000     0.824500000000     0.868600000000     0          
O        O      0.566250000000     0.838100000000     0.807950000000     0          
O        O      0.832700000000     0.552100000000     0.572400000000     0          
O        O      0.545400000000     0.873650000000     0.969000000000     0          
T        Si     0.893650000000     0.539000000000     0.627550000000     0          
T        Si     0.575500000000     0.855100000000     0.842800000000     0          
T        Si     0.805250000000     0.540400000000     0.601250000000     0          
T        Si     0.805400000000     0.539850000000     0.713750000000     0          
T        Si     0.559100000000     0.871750000000     0.934200000000     0          
O        O      0.821150000000     0.874500000000     0.650600000000     0          
O        O      0.842900000000     0.881100000000     0.591700000000     0          
O        O      0.740500000000     0.565000000000     0.868600000000     0          
O        O      0.728150000000     0.566250000000     0.807950000000     0          
O        O      0.780600000000     0.832700000000     0.572400000000     0          
O        O      0.671750000000     0.545400000000     0.969000000000     0          
T        Si     0.854650000000     0.893650000000     0.627550000000     0          
T        Si     0.720400000000     0.575500000000     0.842800000000     0          
T        Si     0.764850000000     0.805250000000     0.601250000000     0          
T        Si     0.765550000000     0.805400000000     0.713750000000     0          
T        Si     0.687350000000     0.559100000000     0.934200000000     0          
O        O      0.678850000000     0.553350000000     0.849400000000     0          
O        O      0.657100000000     0.538200000000     0.908300000000     0          
O        O      0.759500000000     0.824500000000     0.631400000000     0          
O        O      0.771850000000     0.838100000000     0.692050000000     0          
O        O      0.719400000000     0.552100000000     0.927600000000     0          
O        O      0.828250000000     0.873650000000     0.531000000000     0          
T        Si     0.645350000000     0.539000000000     0.872450000000     0          
T        Si     0.779600000000     0.855100000000     0.657200000000     0          
T        Si     0.735150000000     0.540400000000     0.898750000000     0          
T        Si     0.734450000000     0.539850000000     0.786250000000     0          
T        Si     0.812650000000     0.871750000000     0.565800000000     0          
O        O      0.625500000000     0.678850000000     0.849400000000     0          
O        O      0.618900000000     0.657100000000     0.908300000000     0          
O        O      0.935000000000     0.759500000000     0.631400000000     0          
O        O      0.933750000000     0.771850000000     0.692050000000     0          
O        O      0.667300000000     0.719400000000     0.927600000000     0          
O        O      0.954600000000     0.828250000000     0.531000000000     0          
T        Si     0.606350000000     0.645350000000     0.872450000000     0          
T        Si     0.924500000000     0.779600000000     0.657200000000     0          
T        Si     0.694750000000     0.735150000000     0.898750000000     0          
T        Si     0.694600000000     0.734450000000     0.786250000000     0          
T        Si     0.940900000000     0.812650000000     0.565800000000     0          
O        O      0.946650000000     0.625500000000     0.849400000000     0          
O        O      0.961800000000     0.618900000000     0.908300000000     0          
O        O      0.675500000000     0.935000000000     0.631400000000     0          
O        O      0.661900000000     0.933750000000     0.692050000000     0          
O        O      0.947900000000     0.667300000000     0.927600000000     0          
O        O      0.626350000000     0.954600000000     0.531000000000     0          
T        Si     0.961000000000     0.606350000000     0.872450000000     0          
T        Si     0.644900000000     0.924500000000     0.657200000000     0          
T        Si     0.959600000000     0.694750000000     0.898750000000     0          
T        Si     0.960150000000     0.694600000000     0.786250000000     0          
T        Si     0.628250000000     0.940900000000     0.565800000000     0          
O        O      0.821150000000     0.946650000000     0.849400000000     0          
O        O      0.842900000000     0.961800000000     0.908300000000     0          
O        O      0.740500000000     0.675500000000     0.631400000000     0          
O        O      0.728150000000     0.661900000000     0.692050000000     0          
O        O      0.780600000000     0.947900000000     0.927600000000     0          
O        O      0.671750000000     0.626350000000     0.531000000000     0          
T        Si     0.854650000000     0.961000000000     0.872450000000     0          
T        Si     0.720400000000     0.644900000000     0.657200000000     0          
T        Si     0.764850000000     0.959600000000     0.898750000000     0          
T        Si     0.765550000000     0.960150000000     0.786250000000     0          
T        Si     0.687350000000     0.628250000000     0.565800000000     0          
O        O      0.874500000000     0.821150000000     0.849400000000     0          
O        O      0.881100000000     0.842900000000     0.908300000000     0          
O        O      0.565000000000     0.740500000000     0.631400000000     0          
O        O      0.566250000000     0.728150000000     0.692050000000     0          
O        O      0.832700000000     0.780600000000     0.927600000000     0          
O        O      0.545400000000     0.671750000000     0.531000000000     0          
T        Si     0.893650000000     0.854650000000     0.872450000000     0          
T        Si     0.575500000000     0.720400000000     0.657200000000     0          
T        Si     0.805250000000     0.764850000000     0.898750000000     0          
T        Si     0.805400000000     0.765550000000     0.786250000000     0          
T        Si     0.559100000000     0.687350000000     0.565800000000     0          
O        O      0.553350000000     0.874500000000     0.849400000000     0          
O        O      0.538200000000     0.881100000000     0.908300000000     0          
O        O      0.824500000000     0.565000000000     0.631400000000     0          
O        O      0.838100000000     0.566250000000     0.692050000000     0          
O        O      0.552100000000     0.832700000000     0.927600000000     0          
O        O      0.873650000000     0.545400000000     0.531000000000     0          
T        Si     0.539000000000     0.893650000000     0.872450000000     0          
T        Si     0.855100000000     0.575500000000     0.657200000000     0          
T        Si     0.540400000000     0.805250000000     0.898750000000     0          
T        Si     0.539850000000     0.805400000000     0.786250000000     0          
T        Si     0.871750000000     0.559100000000     0.565800000000     0          


