data_zeolite

_audit_creation_method RASPA-1.0
_audit_creation_date 2021-6-6
_audit_author_name ''

_cell_length_a    36.508
_cell_length_b    34.96
_cell_length_c    41.508
_cell_angle_alpha 90
_cell_angle_beta  124.939
_cell_angle_gamma 90
_cell_volume      43428.9

_symmetry_cell_setting          monoclinic
_symmetry_space_group_name_Hall 'P 1'
_symmetry_space_group_name_H-M  'P 1'
_symmetry_Int_Tables_number     1

_symmetry_equiv_pos_as_xyz 'x,y,z'

loop_
_atom_site_label
_atom_site_type_symbol
_atom_site_fract_x
_atom_site_fract_y
_atom_site_fract_z
_atom_site_charge
O        O      0.204600000000     0.057050000000     0.031600000000     0          
O        O      0.009750000000     0.000000000000     0.048025000000     0          
O        O      0.041175000000     0.068800000000     0.075175000000     0          
O        O      0.000000000000     0.054550000000     0.000000000000     0          
O        O      0.069600000000     0.134600000000     0.066025000000     0          
O        O      0.062500000000     0.125000000000     0.125000000000     0          
O        O      0.125000000000     0.088850000000     0.125000000000     0          
O        O      0.125000000000     0.087450000000     0.000000000000     0          
O        O      0.187500000000     0.125000000000     0.000000000000     0          
T        Si     0.001225000000     0.045000000000     0.038525000000     0          
T        Si     0.074400000000     0.104350000000     0.097475000000     0          
T        Si     0.177675000000     0.096250000000     0.024425000000     0          
O        O      0.045400000000     0.057050000000     0.218400000000     0          
O        O      0.240250000000     0.000000000000     0.201975000000     0          
O        O      0.208825000000     0.068800000000     0.174825000000     0          
O        O      0.180400000000     0.134600000000     0.183975000000     0          
O        O      0.187500000000     0.125000000000     0.125000000000     0          
O        O      0.062500000000     0.125000000000     0.000000000000     0          
T        Si     0.248775000000     0.045000000000     0.211475000000     0          
T        Si     0.175600000000     0.104350000000     0.152525000000     0          
T        Si     0.072325000000     0.096250000000     0.225575000000     0          
O        O      0.045400000000     0.442950000000     0.218400000000     0          
O        O      0.208825000000     0.431200000000     0.174825000000     0          
O        O      0.000000000000     0.445450000000     0.000000000000     0          
O        O      0.180400000000     0.365400000000     0.183975000000     0          
O        O      0.187500000000     0.375000000000     0.125000000000     0          
O        O      0.125000000000     0.411150000000     0.125000000000     0          
O        O      0.125000000000     0.412550000000     0.000000000000     0          
O        O      0.062500000000     0.375000000000     0.000000000000     0          
T        Si     0.248775000000     0.455000000000     0.211475000000     0          
T        Si     0.175600000000     0.395650000000     0.152525000000     0          
T        Si     0.072325000000     0.403750000000     0.225575000000     0          
O        O      0.204600000000     0.442950000000     0.031600000000     0          
O        O      0.041175000000     0.431200000000     0.075175000000     0          
O        O      0.069600000000     0.365400000000     0.066025000000     0          
O        O      0.062500000000     0.375000000000     0.125000000000     0          
O        O      0.187500000000     0.375000000000     0.000000000000     0          
T        Si     0.001225000000     0.455000000000     0.038525000000     0          
T        Si     0.074400000000     0.395650000000     0.097475000000     0          
T        Si     0.177675000000     0.403750000000     0.024425000000     0          
O        O      0.079600000000     0.307050000000     0.031600000000     0          
O        O      0.134750000000     0.250000000000     0.048025000000     0          
O        O      0.166175000000     0.318800000000     0.075175000000     0          
O        O      0.125000000000     0.304550000000     0.000000000000     0          
O        O      0.194600000000     0.384600000000     0.066025000000     0          
O        O      0.000000000000     0.338850000000     0.125000000000     0          
O        O      0.000000000000     0.337450000000     0.000000000000     0          
T        Si     0.126225000000     0.295000000000     0.038525000000     0          
T        Si     0.199400000000     0.354350000000     0.097475000000     0          
T        Si     0.052675000000     0.346250000000     0.024425000000     0          
O        O      0.170400000000     0.307050000000     0.218400000000     0          
O        O      0.115250000000     0.250000000000     0.201975000000     0          
O        O      0.083825000000     0.318800000000     0.174825000000     0          
O        O      0.055400000000     0.384600000000     0.183975000000     0          
T        Si     0.123775000000     0.295000000000     0.211475000000     0          
T        Si     0.050600000000     0.354350000000     0.152525000000     0          
T        Si     0.197325000000     0.346250000000     0.225575000000     0          
O        O      0.170400000000     0.192950000000     0.218400000000     0          
O        O      0.083825000000     0.181200000000     0.174825000000     0          
O        O      0.125000000000     0.195450000000     0.000000000000     0          
O        O      0.055400000000     0.115400000000     0.183975000000     0          
O        O      0.000000000000     0.161150000000     0.125000000000     0          
O        O      0.000000000000     0.162550000000     0.000000000000     0          
T        Si     0.123775000000     0.205000000000     0.211475000000     0          
T        Si     0.050600000000     0.145650000000     0.152525000000     0          
T        Si     0.197325000000     0.153750000000     0.225575000000     0          
O        O      0.079600000000     0.192950000000     0.031600000000     0          
O        O      0.166175000000     0.181200000000     0.075175000000     0          
O        O      0.194600000000     0.115400000000     0.066025000000     0          
T        Si     0.126225000000     0.205000000000     0.038525000000     0          
T        Si     0.199400000000     0.145650000000     0.097475000000     0          
T        Si     0.052675000000     0.153750000000     0.024425000000     0          
O        O      0.204600000000     0.057050000000     0.281600000000     0          
O        O      0.009750000000     0.000000000000     0.298025000000     0          
O        O      0.041175000000     0.068800000000     0.325175000000     0          
O        O      0.000000000000     0.054550000000     0.250000000000     0          
O        O      0.069600000000     0.134600000000     0.316025000000     0          
O        O      0.062500000000     0.125000000000     0.375000000000     0          
O        O      0.125000000000     0.088850000000     0.375000000000     0          
O        O      0.125000000000     0.087450000000     0.250000000000     0          
O        O      0.187500000000     0.125000000000     0.250000000000     0          
T        Si     0.001225000000     0.045000000000     0.288525000000     0          
T        Si     0.074400000000     0.104350000000     0.347475000000     0          
T        Si     0.177675000000     0.096250000000     0.274425000000     0          
O        O      0.045400000000     0.057050000000     0.468400000000     0          
O        O      0.240250000000     0.000000000000     0.451975000000     0          
O        O      0.208825000000     0.068800000000     0.424825000000     0          
O        O      0.180400000000     0.134600000000     0.433975000000     0          
O        O      0.187500000000     0.125000000000     0.375000000000     0          
O        O      0.062500000000     0.125000000000     0.250000000000     0          
T        Si     0.248775000000     0.045000000000     0.461475000000     0          
T        Si     0.175600000000     0.104350000000     0.402525000000     0          
T        Si     0.072325000000     0.096250000000     0.475575000000     0          
O        O      0.045400000000     0.442950000000     0.468400000000     0          
O        O      0.208825000000     0.431200000000     0.424825000000     0          
O        O      0.000000000000     0.445450000000     0.250000000000     0          
O        O      0.180400000000     0.365400000000     0.433975000000     0          
O        O      0.187500000000     0.375000000000     0.375000000000     0          
O        O      0.125000000000     0.411150000000     0.375000000000     0          
O        O      0.125000000000     0.412550000000     0.250000000000     0          
O        O      0.062500000000     0.375000000000     0.250000000000     0          
T        Si     0.248775000000     0.455000000000     0.461475000000     0          
T        Si     0.175600000000     0.395650000000     0.402525000000     0          
T        Si     0.072325000000     0.403750000000     0.475575000000     0          
O        O      0.204600000000     0.442950000000     0.281600000000     0          
O        O      0.041175000000     0.431200000000     0.325175000000     0          
O        O      0.069600000000     0.365400000000     0.316025000000     0          
O        O      0.062500000000     0.375000000000     0.375000000000     0          
O        O      0.187500000000     0.375000000000     0.250000000000     0          
T        Si     0.001225000000     0.455000000000     0.288525000000     0          
T        Si     0.074400000000     0.395650000000     0.347475000000     0          
T        Si     0.177675000000     0.403750000000     0.274425000000     0          
O        O      0.079600000000     0.307050000000     0.281600000000     0          
O        O      0.134750000000     0.250000000000     0.298025000000     0          
O        O      0.166175000000     0.318800000000     0.325175000000     0          
O        O      0.125000000000     0.304550000000     0.250000000000     0          
O        O      0.194600000000     0.384600000000     0.316025000000     0          
O        O      0.000000000000     0.338850000000     0.375000000000     0          
O        O      0.000000000000     0.337450000000     0.250000000000     0          
T        Si     0.126225000000     0.295000000000     0.288525000000     0          
T        Si     0.199400000000     0.354350000000     0.347475000000     0          
T        Si     0.052675000000     0.346250000000     0.274425000000     0          
O        O      0.170400000000     0.307050000000     0.468400000000     0          
O        O      0.115250000000     0.250000000000     0.451975000000     0          
O        O      0.083825000000     0.318800000000     0.424825000000     0          
O        O      0.055400000000     0.384600000000     0.433975000000     0          
T        Si     0.123775000000     0.295000000000     0.461475000000     0          
T        Si     0.050600000000     0.354350000000     0.402525000000     0          
T        Si     0.197325000000     0.346250000000     0.475575000000     0          
O        O      0.170400000000     0.192950000000     0.468400000000     0          
O        O      0.083825000000     0.181200000000     0.424825000000     0          
O        O      0.125000000000     0.195450000000     0.250000000000     0          
O        O      0.055400000000     0.115400000000     0.433975000000     0          
O        O      0.000000000000     0.161150000000     0.375000000000     0          
O        O      0.000000000000     0.162550000000     0.250000000000     0          
T        Si     0.123775000000     0.205000000000     0.461475000000     0          
T        Si     0.050600000000     0.145650000000     0.402525000000     0          
T        Si     0.197325000000     0.153750000000     0.475575000000     0          
O        O      0.079600000000     0.192950000000     0.281600000000     0          
O        O      0.166175000000     0.181200000000     0.325175000000     0          
O        O      0.194600000000     0.115400000000     0.316025000000     0          
T        Si     0.126225000000     0.205000000000     0.288525000000     0          
T        Si     0.199400000000     0.145650000000     0.347475000000     0          
T        Si     0.052675000000     0.153750000000     0.274425000000     0          
O        O      0.204600000000     0.057050000000     0.531600000000     0          
O        O      0.009750000000     0.000000000000     0.548025000000     0          
O        O      0.041175000000     0.068800000000     0.575175000000     0          
O        O      0.000000000000     0.054550000000     0.500000000000     0          
O        O      0.069600000000     0.134600000000     0.566025000000     0          
O        O      0.062500000000     0.125000000000     0.625000000000     0          
O        O      0.125000000000     0.088850000000     0.625000000000     0          
O        O      0.125000000000     0.087450000000     0.500000000000     0          
O        O      0.187500000000     0.125000000000     0.500000000000     0          
T        Si     0.001225000000     0.045000000000     0.538525000000     0          
T        Si     0.074400000000     0.104350000000     0.597475000000     0          
T        Si     0.177675000000     0.096250000000     0.524425000000     0          
O        O      0.045400000000     0.057050000000     0.718400000000     0          
O        O      0.240250000000     0.000000000000     0.701975000000     0          
O        O      0.208825000000     0.068800000000     0.674825000000     0          
O        O      0.180400000000     0.134600000000     0.683975000000     0          
O        O      0.187500000000     0.125000000000     0.625000000000     0          
O        O      0.062500000000     0.125000000000     0.500000000000     0          
T        Si     0.248775000000     0.045000000000     0.711475000000     0          
T        Si     0.175600000000     0.104350000000     0.652525000000     0          
T        Si     0.072325000000     0.096250000000     0.725575000000     0          
O        O      0.045400000000     0.442950000000     0.718400000000     0          
O        O      0.208825000000     0.431200000000     0.674825000000     0          
O        O      0.000000000000     0.445450000000     0.500000000000     0          
O        O      0.180400000000     0.365400000000     0.683975000000     0          
O        O      0.187500000000     0.375000000000     0.625000000000     0          
O        O      0.125000000000     0.411150000000     0.625000000000     0          
O        O      0.125000000000     0.412550000000     0.500000000000     0          
O        O      0.062500000000     0.375000000000     0.500000000000     0          
T        Si     0.248775000000     0.455000000000     0.711475000000     0          
T        Si     0.175600000000     0.395650000000     0.652525000000     0          
T        Si     0.072325000000     0.403750000000     0.725575000000     0          
O        O      0.204600000000     0.442950000000     0.531600000000     0          
O        O      0.041175000000     0.431200000000     0.575175000000     0          
O        O      0.069600000000     0.365400000000     0.566025000000     0          
O        O      0.062500000000     0.375000000000     0.625000000000     0          
O        O      0.187500000000     0.375000000000     0.500000000000     0          
T        Si     0.001225000000     0.455000000000     0.538525000000     0          
T        Si     0.074400000000     0.395650000000     0.597475000000     0          
T        Si     0.177675000000     0.403750000000     0.524425000000     0          
O        O      0.079600000000     0.307050000000     0.531600000000     0          
O        O      0.134750000000     0.250000000000     0.548025000000     0          
O        O      0.166175000000     0.318800000000     0.575175000000     0          
O        O      0.125000000000     0.304550000000     0.500000000000     0          
O        O      0.194600000000     0.384600000000     0.566025000000     0          
O        O      0.000000000000     0.338850000000     0.625000000000     0          
O        O      0.000000000000     0.337450000000     0.500000000000     0          
T        Si     0.126225000000     0.295000000000     0.538525000000     0          
T        Si     0.199400000000     0.354350000000     0.597475000000     0          
T        Si     0.052675000000     0.346250000000     0.524425000000     0          
O        O      0.170400000000     0.307050000000     0.718400000000     0          
O        O      0.115250000000     0.250000000000     0.701975000000     0          
O        O      0.083825000000     0.318800000000     0.674825000000     0          
O        O      0.055400000000     0.384600000000     0.683975000000     0          
T        Si     0.123775000000     0.295000000000     0.711475000000     0          
T        Si     0.050600000000     0.354350000000     0.652525000000     0          
T        Si     0.197325000000     0.346250000000     0.725575000000     0          
O        O      0.170400000000     0.192950000000     0.718400000000     0          
O        O      0.083825000000     0.181200000000     0.674825000000     0          
O        O      0.125000000000     0.195450000000     0.500000000000     0          
O        O      0.055400000000     0.115400000000     0.683975000000     0          
O        O      0.000000000000     0.161150000000     0.625000000000     0          
O        O      0.000000000000     0.162550000000     0.500000000000     0          
T        Si     0.123775000000     0.205000000000     0.711475000000     0          
T        Si     0.050600000000     0.145650000000     0.652525000000     0          
T        Si     0.197325000000     0.153750000000     0.725575000000     0          
O        O      0.079600000000     0.192950000000     0.531600000000     0          
O        O      0.166175000000     0.181200000000     0.575175000000     0          
O        O      0.194600000000     0.115400000000     0.566025000000     0          
T        Si     0.126225000000     0.205000000000     0.538525000000     0          
T        Si     0.199400000000     0.145650000000     0.597475000000     0          
T        Si     0.052675000000     0.153750000000     0.524425000000     0          
O        O      0.204600000000     0.057050000000     0.781600000000     0          
O        O      0.009750000000     0.000000000000     0.798025000000     0          
O        O      0.041175000000     0.068800000000     0.825175000000     0          
O        O      0.000000000000     0.054550000000     0.750000000000     0          
O        O      0.069600000000     0.134600000000     0.816025000000     0          
O        O      0.062500000000     0.125000000000     0.875000000000     0          
O        O      0.125000000000     0.088850000000     0.875000000000     0          
O        O      0.125000000000     0.087450000000     0.750000000000     0          
O        O      0.187500000000     0.125000000000     0.750000000000     0          
T        Si     0.001225000000     0.045000000000     0.788525000000     0          
T        Si     0.074400000000     0.104350000000     0.847475000000     0          
T        Si     0.177675000000     0.096250000000     0.774425000000     0          
O        O      0.045400000000     0.057050000000     0.968400000000     0          
O        O      0.240250000000     0.000000000000     0.951975000000     0          
O        O      0.208825000000     0.068800000000     0.924825000000     0          
O        O      0.180400000000     0.134600000000     0.933975000000     0          
O        O      0.187500000000     0.125000000000     0.875000000000     0          
O        O      0.062500000000     0.125000000000     0.750000000000     0          
T        Si     0.248775000000     0.045000000000     0.961475000000     0          
T        Si     0.175600000000     0.104350000000     0.902525000000     0          
T        Si     0.072325000000     0.096250000000     0.975575000000     0          
O        O      0.045400000000     0.442950000000     0.968400000000     0          
O        O      0.208825000000     0.431200000000     0.924825000000     0          
O        O      0.000000000000     0.445450000000     0.750000000000     0          
O        O      0.180400000000     0.365400000000     0.933975000000     0          
O        O      0.187500000000     0.375000000000     0.875000000000     0          
O        O      0.125000000000     0.411150000000     0.875000000000     0          
O        O      0.125000000000     0.412550000000     0.750000000000     0          
O        O      0.062500000000     0.375000000000     0.750000000000     0          
T        Si     0.248775000000     0.455000000000     0.961475000000     0          
T        Si     0.175600000000     0.395650000000     0.902525000000     0          
T        Si     0.072325000000     0.403750000000     0.975575000000     0          
O        O      0.204600000000     0.442950000000     0.781600000000     0          
O        O      0.041175000000     0.431200000000     0.825175000000     0          
O        O      0.069600000000     0.365400000000     0.816025000000     0          
O        O      0.062500000000     0.375000000000     0.875000000000     0          
O        O      0.187500000000     0.375000000000     0.750000000000     0          
T        Si     0.001225000000     0.455000000000     0.788525000000     0          
T        Si     0.074400000000     0.395650000000     0.847475000000     0          
T        Si     0.177675000000     0.403750000000     0.774425000000     0          
O        O      0.079600000000     0.307050000000     0.781600000000     0          
O        O      0.134750000000     0.250000000000     0.798025000000     0          
O        O      0.166175000000     0.318800000000     0.825175000000     0          
O        O      0.125000000000     0.304550000000     0.750000000000     0          
O        O      0.194600000000     0.384600000000     0.816025000000     0          
O        O      0.000000000000     0.338850000000     0.875000000000     0          
O        O      0.000000000000     0.337450000000     0.750000000000     0          
T        Si     0.126225000000     0.295000000000     0.788525000000     0          
T        Si     0.199400000000     0.354350000000     0.847475000000     0          
T        Si     0.052675000000     0.346250000000     0.774425000000     0          
O        O      0.170400000000     0.307050000000     0.968400000000     0          
O        O      0.115250000000     0.250000000000     0.951975000000     0          
O        O      0.083825000000     0.318800000000     0.924825000000     0          
O        O      0.055400000000     0.384600000000     0.933975000000     0          
T        Si     0.123775000000     0.295000000000     0.961475000000     0          
T        Si     0.050600000000     0.354350000000     0.902525000000     0          
T        Si     0.197325000000     0.346250000000     0.975575000000     0          
O        O      0.170400000000     0.192950000000     0.968400000000     0          
O        O      0.083825000000     0.181200000000     0.924825000000     0          
O        O      0.125000000000     0.195450000000     0.750000000000     0          
O        O      0.055400000000     0.115400000000     0.933975000000     0          
O        O      0.000000000000     0.161150000000     0.875000000000     0          
O        O      0.000000000000     0.162550000000     0.750000000000     0          
T        Si     0.123775000000     0.205000000000     0.961475000000     0          
T        Si     0.050600000000     0.145650000000     0.902525000000     0          
T        Si     0.197325000000     0.153750000000     0.975575000000     0          
O        O      0.079600000000     0.192950000000     0.781600000000     0          
O        O      0.166175000000     0.181200000000     0.825175000000     0          
O        O      0.194600000000     0.115400000000     0.816025000000     0          
T        Si     0.126225000000     0.205000000000     0.788525000000     0          
T        Si     0.199400000000     0.145650000000     0.847475000000     0          
T        Si     0.052675000000     0.153750000000     0.774425000000     0          
O        O      0.204600000000     0.557050000000     0.031600000000     0          
O        O      0.009750000000     0.500000000000     0.048025000000     0          
O        O      0.041175000000     0.568800000000     0.075175000000     0          
O        O      0.000000000000     0.554550000000     0.000000000000     0          
O        O      0.069600000000     0.634600000000     0.066025000000     0          
O        O      0.062500000000     0.625000000000     0.125000000000     0          
O        O      0.125000000000     0.588850000000     0.125000000000     0          
O        O      0.125000000000     0.587450000000     0.000000000000     0          
O        O      0.187500000000     0.625000000000     0.000000000000     0          
T        Si     0.001225000000     0.545000000000     0.038525000000     0          
T        Si     0.074400000000     0.604350000000     0.097475000000     0          
T        Si     0.177675000000     0.596250000000     0.024425000000     0          
O        O      0.045400000000     0.557050000000     0.218400000000     0          
O        O      0.240250000000     0.500000000000     0.201975000000     0          
O        O      0.208825000000     0.568800000000     0.174825000000     0          
O        O      0.180400000000     0.634600000000     0.183975000000     0          
O        O      0.187500000000     0.625000000000     0.125000000000     0          
O        O      0.062500000000     0.625000000000     0.000000000000     0          
T        Si     0.248775000000     0.545000000000     0.211475000000     0          
T        Si     0.175600000000     0.604350000000     0.152525000000     0          
T        Si     0.072325000000     0.596250000000     0.225575000000     0          
O        O      0.045400000000     0.942950000000     0.218400000000     0          
O        O      0.208825000000     0.931200000000     0.174825000000     0          
O        O      0.000000000000     0.945450000000     0.000000000000     0          
O        O      0.180400000000     0.865400000000     0.183975000000     0          
O        O      0.187500000000     0.875000000000     0.125000000000     0          
O        O      0.125000000000     0.911150000000     0.125000000000     0          
O        O      0.125000000000     0.912550000000     0.000000000000     0          
O        O      0.062500000000     0.875000000000     0.000000000000     0          
T        Si     0.248775000000     0.955000000000     0.211475000000     0          
T        Si     0.175600000000     0.895650000000     0.152525000000     0          
T        Si     0.072325000000     0.903750000000     0.225575000000     0          
O        O      0.204600000000     0.942950000000     0.031600000000     0          
O        O      0.041175000000     0.931200000000     0.075175000000     0          
O        O      0.069600000000     0.865400000000     0.066025000000     0          
O        O      0.062500000000     0.875000000000     0.125000000000     0          
O        O      0.187500000000     0.875000000000     0.000000000000     0          
T        Si     0.001225000000     0.955000000000     0.038525000000     0          
T        Si     0.074400000000     0.895650000000     0.097475000000     0          
T        Si     0.177675000000     0.903750000000     0.024425000000     0          
O        O      0.079600000000     0.807050000000     0.031600000000     0          
O        O      0.134750000000     0.750000000000     0.048025000000     0          
O        O      0.166175000000     0.818800000000     0.075175000000     0          
O        O      0.125000000000     0.804550000000     0.000000000000     0          
O        O      0.194600000000     0.884600000000     0.066025000000     0          
O        O      0.000000000000     0.838850000000     0.125000000000     0          
O        O      0.000000000000     0.837450000000     0.000000000000     0          
T        Si     0.126225000000     0.795000000000     0.038525000000     0          
T        Si     0.199400000000     0.854350000000     0.097475000000     0          
T        Si     0.052675000000     0.846250000000     0.024425000000     0          
O        O      0.170400000000     0.807050000000     0.218400000000     0          
O        O      0.115250000000     0.750000000000     0.201975000000     0          
O        O      0.083825000000     0.818800000000     0.174825000000     0          
O        O      0.055400000000     0.884600000000     0.183975000000     0          
T        Si     0.123775000000     0.795000000000     0.211475000000     0          
T        Si     0.050600000000     0.854350000000     0.152525000000     0          
T        Si     0.197325000000     0.846250000000     0.225575000000     0          
O        O      0.170400000000     0.692950000000     0.218400000000     0          
O        O      0.083825000000     0.681200000000     0.174825000000     0          
O        O      0.125000000000     0.695450000000     0.000000000000     0          
O        O      0.055400000000     0.615400000000     0.183975000000     0          
O        O      0.000000000000     0.661150000000     0.125000000000     0          
O        O      0.000000000000     0.662550000000     0.000000000000     0          
T        Si     0.123775000000     0.705000000000     0.211475000000     0          
T        Si     0.050600000000     0.645650000000     0.152525000000     0          
T        Si     0.197325000000     0.653750000000     0.225575000000     0          
O        O      0.079600000000     0.692950000000     0.031600000000     0          
O        O      0.166175000000     0.681200000000     0.075175000000     0          
O        O      0.194600000000     0.615400000000     0.066025000000     0          
T        Si     0.126225000000     0.705000000000     0.038525000000     0          
T        Si     0.199400000000     0.645650000000     0.097475000000     0          
T        Si     0.052675000000     0.653750000000     0.024425000000     0          
O        O      0.204600000000     0.557050000000     0.281600000000     0          
O        O      0.009750000000     0.500000000000     0.298025000000     0          
O        O      0.041175000000     0.568800000000     0.325175000000     0          
O        O      0.000000000000     0.554550000000     0.250000000000     0          
O        O      0.069600000000     0.634600000000     0.316025000000     0          
O        O      0.062500000000     0.625000000000     0.375000000000     0          
O        O      0.125000000000     0.588850000000     0.375000000000     0          
O        O      0.125000000000     0.587450000000     0.250000000000     0          
O        O      0.187500000000     0.625000000000     0.250000000000     0          
T        Si     0.001225000000     0.545000000000     0.288525000000     0          
T        Si     0.074400000000     0.604350000000     0.347475000000     0          
T        Si     0.177675000000     0.596250000000     0.274425000000     0          
O        O      0.045400000000     0.557050000000     0.468400000000     0          
O        O      0.240250000000     0.500000000000     0.451975000000     0          
O        O      0.208825000000     0.568800000000     0.424825000000     0          
O        O      0.180400000000     0.634600000000     0.433975000000     0          
O        O      0.187500000000     0.625000000000     0.375000000000     0          
O        O      0.062500000000     0.625000000000     0.250000000000     0          
T        Si     0.248775000000     0.545000000000     0.461475000000     0          
T        Si     0.175600000000     0.604350000000     0.402525000000     0          
T        Si     0.072325000000     0.596250000000     0.475575000000     0          
O        O      0.045400000000     0.942950000000     0.468400000000     0          
O        O      0.208825000000     0.931200000000     0.424825000000     0          
O        O      0.000000000000     0.945450000000     0.250000000000     0          
O        O      0.180400000000     0.865400000000     0.433975000000     0          
O        O      0.187500000000     0.875000000000     0.375000000000     0          
O        O      0.125000000000     0.911150000000     0.375000000000     0          
O        O      0.125000000000     0.912550000000     0.250000000000     0          
O        O      0.062500000000     0.875000000000     0.250000000000     0          
T        Si     0.248775000000     0.955000000000     0.461475000000     0          
T        Si     0.175600000000     0.895650000000     0.402525000000     0          
T        Si     0.072325000000     0.903750000000     0.475575000000     0          
O        O      0.204600000000     0.942950000000     0.281600000000     0          
O        O      0.041175000000     0.931200000000     0.325175000000     0          
O        O      0.069600000000     0.865400000000     0.316025000000     0          
O        O      0.062500000000     0.875000000000     0.375000000000     0          
O        O      0.187500000000     0.875000000000     0.250000000000     0          
T        Si     0.001225000000     0.955000000000     0.288525000000     0          
T        Si     0.074400000000     0.895650000000     0.347475000000     0          
T        Si     0.177675000000     0.903750000000     0.274425000000     0          
O        O      0.079600000000     0.807050000000     0.281600000000     0          
O        O      0.134750000000     0.750000000000     0.298025000000     0          
O        O      0.166175000000     0.818800000000     0.325175000000     0          
O        O      0.125000000000     0.804550000000     0.250000000000     0          
O        O      0.194600000000     0.884600000000     0.316025000000     0          
O        O      0.000000000000     0.838850000000     0.375000000000     0          
O        O      0.000000000000     0.837450000000     0.250000000000     0          
T        Si     0.126225000000     0.795000000000     0.288525000000     0          
T        Si     0.199400000000     0.854350000000     0.347475000000     0          
T        Si     0.052675000000     0.846250000000     0.274425000000     0          
O        O      0.170400000000     0.807050000000     0.468400000000     0          
O        O      0.115250000000     0.750000000000     0.451975000000     0          
O        O      0.083825000000     0.818800000000     0.424825000000     0          
O        O      0.055400000000     0.884600000000     0.433975000000     0          
T        Si     0.123775000000     0.795000000000     0.461475000000     0          
T        Si     0.050600000000     0.854350000000     0.402525000000     0          
T        Si     0.197325000000     0.846250000000     0.475575000000     0          
O        O      0.170400000000     0.692950000000     0.468400000000     0          
O        O      0.083825000000     0.681200000000     0.424825000000     0          
O        O      0.125000000000     0.695450000000     0.250000000000     0          
O        O      0.055400000000     0.615400000000     0.433975000000     0          
O        O      0.000000000000     0.661150000000     0.375000000000     0          
O        O      0.000000000000     0.662550000000     0.250000000000     0          
T        Si     0.123775000000     0.705000000000     0.461475000000     0          
T        Si     0.050600000000     0.645650000000     0.402525000000     0          
T        Si     0.197325000000     0.653750000000     0.475575000000     0          
O        O      0.079600000000     0.692950000000     0.281600000000     0          
O        O      0.166175000000     0.681200000000     0.325175000000     0          
O        O      0.194600000000     0.615400000000     0.316025000000     0          
T        Si     0.126225000000     0.705000000000     0.288525000000     0          
T        Si     0.199400000000     0.645650000000     0.347475000000     0          
T        Si     0.052675000000     0.653750000000     0.274425000000     0          
O        O      0.204600000000     0.557050000000     0.531600000000     0          
O        O      0.009750000000     0.500000000000     0.548025000000     0          
O        O      0.041175000000     0.568800000000     0.575175000000     0          
O        O      0.000000000000     0.554550000000     0.500000000000     0          
O        O      0.069600000000     0.634600000000     0.566025000000     0          
O        O      0.062500000000     0.625000000000     0.625000000000     0          
O        O      0.125000000000     0.588850000000     0.625000000000     0          
O        O      0.125000000000     0.587450000000     0.500000000000     0          
O        O      0.187500000000     0.625000000000     0.500000000000     0          
T        Si     0.001225000000     0.545000000000     0.538525000000     0          
T        Si     0.074400000000     0.604350000000     0.597475000000     0          
T        Si     0.177675000000     0.596250000000     0.524425000000     0          
O        O      0.045400000000     0.557050000000     0.718400000000     0          
O        O      0.240250000000     0.500000000000     0.701975000000     0          
O        O      0.208825000000     0.568800000000     0.674825000000     0          
O        O      0.180400000000     0.634600000000     0.683975000000     0          
O        O      0.187500000000     0.625000000000     0.625000000000     0          
O        O      0.062500000000     0.625000000000     0.500000000000     0          
T        Si     0.248775000000     0.545000000000     0.711475000000     0          
T        Si     0.175600000000     0.604350000000     0.652525000000     0          
T        Si     0.072325000000     0.596250000000     0.725575000000     0          
O        O      0.045400000000     0.942950000000     0.718400000000     0          
O        O      0.208825000000     0.931200000000     0.674825000000     0          
O        O      0.000000000000     0.945450000000     0.500000000000     0          
O        O      0.180400000000     0.865400000000     0.683975000000     0          
O        O      0.187500000000     0.875000000000     0.625000000000     0          
O        O      0.125000000000     0.911150000000     0.625000000000     0          
O        O      0.125000000000     0.912550000000     0.500000000000     0          
O        O      0.062500000000     0.875000000000     0.500000000000     0          
T        Si     0.248775000000     0.955000000000     0.711475000000     0          
T        Si     0.175600000000     0.895650000000     0.652525000000     0          
T        Si     0.072325000000     0.903750000000     0.725575000000     0          
O        O      0.204600000000     0.942950000000     0.531600000000     0          
O        O      0.041175000000     0.931200000000     0.575175000000     0          
O        O      0.069600000000     0.865400000000     0.566025000000     0          
O        O      0.062500000000     0.875000000000     0.625000000000     0          
O        O      0.187500000000     0.875000000000     0.500000000000     0          
T        Si     0.001225000000     0.955000000000     0.538525000000     0          
T        Si     0.074400000000     0.895650000000     0.597475000000     0          
T        Si     0.177675000000     0.903750000000     0.524425000000     0          
O        O      0.079600000000     0.807050000000     0.531600000000     0          
O        O      0.134750000000     0.750000000000     0.548025000000     0          
O        O      0.166175000000     0.818800000000     0.575175000000     0          
O        O      0.125000000000     0.804550000000     0.500000000000     0          
O        O      0.194600000000     0.884600000000     0.566025000000     0          
O        O      0.000000000000     0.838850000000     0.625000000000     0          
O        O      0.000000000000     0.837450000000     0.500000000000     0          
T        Si     0.126225000000     0.795000000000     0.538525000000     0          
T        Si     0.199400000000     0.854350000000     0.597475000000     0          
T        Si     0.052675000000     0.846250000000     0.524425000000     0          
O        O      0.170400000000     0.807050000000     0.718400000000     0          
O        O      0.115250000000     0.750000000000     0.701975000000     0          
O        O      0.083825000000     0.818800000000     0.674825000000     0          
O        O      0.055400000000     0.884600000000     0.683975000000     0          
T        Si     0.123775000000     0.795000000000     0.711475000000     0          
T        Si     0.050600000000     0.854350000000     0.652525000000     0          
T        Si     0.197325000000     0.846250000000     0.725575000000     0          
O        O      0.170400000000     0.692950000000     0.718400000000     0          
O        O      0.083825000000     0.681200000000     0.674825000000     0          
O        O      0.125000000000     0.695450000000     0.500000000000     0          
O        O      0.055400000000     0.615400000000     0.683975000000     0          
O        O      0.000000000000     0.661150000000     0.625000000000     0          
O        O      0.000000000000     0.662550000000     0.500000000000     0          
T        Si     0.123775000000     0.705000000000     0.711475000000     0          
T        Si     0.050600000000     0.645650000000     0.652525000000     0          
T        Si     0.197325000000     0.653750000000     0.725575000000     0          
O        O      0.079600000000     0.692950000000     0.531600000000     0          
O        O      0.166175000000     0.681200000000     0.575175000000     0          
O        O      0.194600000000     0.615400000000     0.566025000000     0          
T        Si     0.126225000000     0.705000000000     0.538525000000     0          
T        Si     0.199400000000     0.645650000000     0.597475000000     0          
T        Si     0.052675000000     0.653750000000     0.524425000000     0          
O        O      0.204600000000     0.557050000000     0.781600000000     0          
O        O      0.009750000000     0.500000000000     0.798025000000     0          
O        O      0.041175000000     0.568800000000     0.825175000000     0          
O        O      0.000000000000     0.554550000000     0.750000000000     0          
O        O      0.069600000000     0.634600000000     0.816025000000     0          
O        O      0.062500000000     0.625000000000     0.875000000000     0          
O        O      0.125000000000     0.588850000000     0.875000000000     0          
O        O      0.125000000000     0.587450000000     0.750000000000     0          
O        O      0.187500000000     0.625000000000     0.750000000000     0          
T        Si     0.001225000000     0.545000000000     0.788525000000     0          
T        Si     0.074400000000     0.604350000000     0.847475000000     0          
T        Si     0.177675000000     0.596250000000     0.774425000000     0          
O        O      0.045400000000     0.557050000000     0.968400000000     0          
O        O      0.240250000000     0.500000000000     0.951975000000     0          
O        O      0.208825000000     0.568800000000     0.924825000000     0          
O        O      0.180400000000     0.634600000000     0.933975000000     0          
O        O      0.187500000000     0.625000000000     0.875000000000     0          
O        O      0.062500000000     0.625000000000     0.750000000000     0          
T        Si     0.248775000000     0.545000000000     0.961475000000     0          
T        Si     0.175600000000     0.604350000000     0.902525000000     0          
T        Si     0.072325000000     0.596250000000     0.975575000000     0          
O        O      0.045400000000     0.942950000000     0.968400000000     0          
O        O      0.208825000000     0.931200000000     0.924825000000     0          
O        O      0.000000000000     0.945450000000     0.750000000000     0          
O        O      0.180400000000     0.865400000000     0.933975000000     0          
O        O      0.187500000000     0.875000000000     0.875000000000     0          
O        O      0.125000000000     0.911150000000     0.875000000000     0          
O        O      0.125000000000     0.912550000000     0.750000000000     0          
O        O      0.062500000000     0.875000000000     0.750000000000     0          
T        Si     0.248775000000     0.955000000000     0.961475000000     0          
T        Si     0.175600000000     0.895650000000     0.902525000000     0          
T        Si     0.072325000000     0.903750000000     0.975575000000     0          
O        O      0.204600000000     0.942950000000     0.781600000000     0          
O        O      0.041175000000     0.931200000000     0.825175000000     0          
O        O      0.069600000000     0.865400000000     0.816025000000     0          
O        O      0.062500000000     0.875000000000     0.875000000000     0          
O        O      0.187500000000     0.875000000000     0.750000000000     0          
T        Si     0.001225000000     0.955000000000     0.788525000000     0          
T        Si     0.074400000000     0.895650000000     0.847475000000     0          
T        Si     0.177675000000     0.903750000000     0.774425000000     0          
O        O      0.079600000000     0.807050000000     0.781600000000     0          
O        O      0.134750000000     0.750000000000     0.798025000000     0          
O        O      0.166175000000     0.818800000000     0.825175000000     0          
O        O      0.125000000000     0.804550000000     0.750000000000     0          
O        O      0.194600000000     0.884600000000     0.816025000000     0          
O        O      0.000000000000     0.838850000000     0.875000000000     0          
O        O      0.000000000000     0.837450000000     0.750000000000     0          
T        Si     0.126225000000     0.795000000000     0.788525000000     0          
T        Si     0.199400000000     0.854350000000     0.847475000000     0          
T        Si     0.052675000000     0.846250000000     0.774425000000     0          
O        O      0.170400000000     0.807050000000     0.968400000000     0          
O        O      0.115250000000     0.750000000000     0.951975000000     0          
O        O      0.083825000000     0.818800000000     0.924825000000     0          
O        O      0.055400000000     0.884600000000     0.933975000000     0          
T        Si     0.123775000000     0.795000000000     0.961475000000     0          
T        Si     0.050600000000     0.854350000000     0.902525000000     0          
T        Si     0.197325000000     0.846250000000     0.975575000000     0          
O        O      0.170400000000     0.692950000000     0.968400000000     0          
O        O      0.083825000000     0.681200000000     0.924825000000     0          
O        O      0.125000000000     0.695450000000     0.750000000000     0          
O        O      0.055400000000     0.615400000000     0.933975000000     0          
O        O      0.000000000000     0.661150000000     0.875000000000     0          
O        O      0.000000000000     0.662550000000     0.750000000000     0          
T        Si     0.123775000000     0.705000000000     0.961475000000     0          
T        Si     0.050600000000     0.645650000000     0.902525000000     0          
T        Si     0.197325000000     0.653750000000     0.975575000000     0          
O        O      0.079600000000     0.692950000000     0.781600000000     0          
O        O      0.166175000000     0.681200000000     0.825175000000     0          
O        O      0.194600000000     0.615400000000     0.816025000000     0          
T        Si     0.126225000000     0.705000000000     0.788525000000     0          
T        Si     0.199400000000     0.645650000000     0.847475000000     0          
T        Si     0.052675000000     0.653750000000     0.774425000000     0          
O        O      0.454600000000     0.057050000000     0.031600000000     0          
O        O      0.259750000000     0.000000000000     0.048025000000     0          
O        O      0.291175000000     0.068800000000     0.075175000000     0          
O        O      0.250000000000     0.054550000000     0.000000000000     0          
O        O      0.319600000000     0.134600000000     0.066025000000     0          
O        O      0.312500000000     0.125000000000     0.125000000000     0          
O        O      0.375000000000     0.088850000000     0.125000000000     0          
O        O      0.375000000000     0.087450000000     0.000000000000     0          
O        O      0.437500000000     0.125000000000     0.000000000000     0          
T        Si     0.251225000000     0.045000000000     0.038525000000     0          
T        Si     0.324400000000     0.104350000000     0.097475000000     0          
T        Si     0.427675000000     0.096250000000     0.024425000000     0          
O        O      0.295400000000     0.057050000000     0.218400000000     0          
O        O      0.490250000000     0.000000000000     0.201975000000     0          
O        O      0.458825000000     0.068800000000     0.174825000000     0          
O        O      0.430400000000     0.134600000000     0.183975000000     0          
O        O      0.437500000000     0.125000000000     0.125000000000     0          
O        O      0.312500000000     0.125000000000     0.000000000000     0          
T        Si     0.498775000000     0.045000000000     0.211475000000     0          
T        Si     0.425600000000     0.104350000000     0.152525000000     0          
T        Si     0.322325000000     0.096250000000     0.225575000000     0          
O        O      0.295400000000     0.442950000000     0.218400000000     0          
O        O      0.458825000000     0.431200000000     0.174825000000     0          
O        O      0.250000000000     0.445450000000     0.000000000000     0          
O        O      0.430400000000     0.365400000000     0.183975000000     0          
O        O      0.437500000000     0.375000000000     0.125000000000     0          
O        O      0.375000000000     0.411150000000     0.125000000000     0          
O        O      0.375000000000     0.412550000000     0.000000000000     0          
O        O      0.312500000000     0.375000000000     0.000000000000     0          
T        Si     0.498775000000     0.455000000000     0.211475000000     0          
T        Si     0.425600000000     0.395650000000     0.152525000000     0          
T        Si     0.322325000000     0.403750000000     0.225575000000     0          
O        O      0.454600000000     0.442950000000     0.031600000000     0          
O        O      0.291175000000     0.431200000000     0.075175000000     0          
O        O      0.319600000000     0.365400000000     0.066025000000     0          
O        O      0.312500000000     0.375000000000     0.125000000000     0          
O        O      0.437500000000     0.375000000000     0.000000000000     0          
T        Si     0.251225000000     0.455000000000     0.038525000000     0          
T        Si     0.324400000000     0.395650000000     0.097475000000     0          
T        Si     0.427675000000     0.403750000000     0.024425000000     0          
O        O      0.329600000000     0.307050000000     0.031600000000     0          
O        O      0.384750000000     0.250000000000     0.048025000000     0          
O        O      0.416175000000     0.318800000000     0.075175000000     0          
O        O      0.375000000000     0.304550000000     0.000000000000     0          
O        O      0.444600000000     0.384600000000     0.066025000000     0          
O        O      0.250000000000     0.338850000000     0.125000000000     0          
O        O      0.250000000000     0.337450000000     0.000000000000     0          
T        Si     0.376225000000     0.295000000000     0.038525000000     0          
T        Si     0.449400000000     0.354350000000     0.097475000000     0          
T        Si     0.302675000000     0.346250000000     0.024425000000     0          
O        O      0.420400000000     0.307050000000     0.218400000000     0          
O        O      0.365250000000     0.250000000000     0.201975000000     0          
O        O      0.333825000000     0.318800000000     0.174825000000     0          
O        O      0.305400000000     0.384600000000     0.183975000000     0          
T        Si     0.373775000000     0.295000000000     0.211475000000     0          
T        Si     0.300600000000     0.354350000000     0.152525000000     0          
T        Si     0.447325000000     0.346250000000     0.225575000000     0          
O        O      0.420400000000     0.192950000000     0.218400000000     0          
O        O      0.333825000000     0.181200000000     0.174825000000     0          
O        O      0.375000000000     0.195450000000     0.000000000000     0          
O        O      0.305400000000     0.115400000000     0.183975000000     0          
O        O      0.250000000000     0.161150000000     0.125000000000     0          
O        O      0.250000000000     0.162550000000     0.000000000000     0          
T        Si     0.373775000000     0.205000000000     0.211475000000     0          
T        Si     0.300600000000     0.145650000000     0.152525000000     0          
T        Si     0.447325000000     0.153750000000     0.225575000000     0          
O        O      0.329600000000     0.192950000000     0.031600000000     0          
O        O      0.416175000000     0.181200000000     0.075175000000     0          
O        O      0.444600000000     0.115400000000     0.066025000000     0          
T        Si     0.376225000000     0.205000000000     0.038525000000     0          
T        Si     0.449400000000     0.145650000000     0.097475000000     0          
T        Si     0.302675000000     0.153750000000     0.024425000000     0          
O        O      0.454600000000     0.057050000000     0.281600000000     0          
O        O      0.259750000000     0.000000000000     0.298025000000     0          
O        O      0.291175000000     0.068800000000     0.325175000000     0          
O        O      0.250000000000     0.054550000000     0.250000000000     0          
O        O      0.319600000000     0.134600000000     0.316025000000     0          
O        O      0.312500000000     0.125000000000     0.375000000000     0          
O        O      0.375000000000     0.088850000000     0.375000000000     0          
O        O      0.375000000000     0.087450000000     0.250000000000     0          
O        O      0.437500000000     0.125000000000     0.250000000000     0          
T        Si     0.251225000000     0.045000000000     0.288525000000     0          
T        Si     0.324400000000     0.104350000000     0.347475000000     0          
T        Si     0.427675000000     0.096250000000     0.274425000000     0          
O        O      0.295400000000     0.057050000000     0.468400000000     0          
O        O      0.490250000000     0.000000000000     0.451975000000     0          
O        O      0.458825000000     0.068800000000     0.424825000000     0          
O        O      0.430400000000     0.134600000000     0.433975000000     0          
O        O      0.437500000000     0.125000000000     0.375000000000     0          
O        O      0.312500000000     0.125000000000     0.250000000000     0          
T        Si     0.498775000000     0.045000000000     0.461475000000     0          
T        Si     0.425600000000     0.104350000000     0.402525000000     0          
T        Si     0.322325000000     0.096250000000     0.475575000000     0          
O        O      0.295400000000     0.442950000000     0.468400000000     0          
O        O      0.458825000000     0.431200000000     0.424825000000     0          
O        O      0.250000000000     0.445450000000     0.250000000000     0          
O        O      0.430400000000     0.365400000000     0.433975000000     0          
O        O      0.437500000000     0.375000000000     0.375000000000     0          
O        O      0.375000000000     0.411150000000     0.375000000000     0          
O        O      0.375000000000     0.412550000000     0.250000000000     0          
O        O      0.312500000000     0.375000000000     0.250000000000     0          
T        Si     0.498775000000     0.455000000000     0.461475000000     0          
T        Si     0.425600000000     0.395650000000     0.402525000000     0          
T        Si     0.322325000000     0.403750000000     0.475575000000     0          
O        O      0.454600000000     0.442950000000     0.281600000000     0          
O        O      0.291175000000     0.431200000000     0.325175000000     0          
O        O      0.319600000000     0.365400000000     0.316025000000     0          
O        O      0.312500000000     0.375000000000     0.375000000000     0          
O        O      0.437500000000     0.375000000000     0.250000000000     0          
T        Si     0.251225000000     0.455000000000     0.288525000000     0          
T        Si     0.324400000000     0.395650000000     0.347475000000     0          
T        Si     0.427675000000     0.403750000000     0.274425000000     0          
O        O      0.329600000000     0.307050000000     0.281600000000     0          
O        O      0.384750000000     0.250000000000     0.298025000000     0          
O        O      0.416175000000     0.318800000000     0.325175000000     0          
O        O      0.375000000000     0.304550000000     0.250000000000     0          
O        O      0.444600000000     0.384600000000     0.316025000000     0          
O        O      0.250000000000     0.338850000000     0.375000000000     0          
O        O      0.250000000000     0.337450000000     0.250000000000     0          
T        Si     0.376225000000     0.295000000000     0.288525000000     0          
T        Si     0.449400000000     0.354350000000     0.347475000000     0          
T        Si     0.302675000000     0.346250000000     0.274425000000     0          
O        O      0.420400000000     0.307050000000     0.468400000000     0          
O        O      0.365250000000     0.250000000000     0.451975000000     0          
O        O      0.333825000000     0.318800000000     0.424825000000     0          
O        O      0.305400000000     0.384600000000     0.433975000000     0          
T        Si     0.373775000000     0.295000000000     0.461475000000     0          
T        Si     0.300600000000     0.354350000000     0.402525000000     0          
T        Si     0.447325000000     0.346250000000     0.475575000000     0          
O        O      0.420400000000     0.192950000000     0.468400000000     0          
O        O      0.333825000000     0.181200000000     0.424825000000     0          
O        O      0.375000000000     0.195450000000     0.250000000000     0          
O        O      0.305400000000     0.115400000000     0.433975000000     0          
O        O      0.250000000000     0.161150000000     0.375000000000     0          
O        O      0.250000000000     0.162550000000     0.250000000000     0          
T        Si     0.373775000000     0.205000000000     0.461475000000     0          
T        Si     0.300600000000     0.145650000000     0.402525000000     0          
T        Si     0.447325000000     0.153750000000     0.475575000000     0          
O        O      0.329600000000     0.192950000000     0.281600000000     0          
O        O      0.416175000000     0.181200000000     0.325175000000     0          
O        O      0.444600000000     0.115400000000     0.316025000000     0          
T        Si     0.376225000000     0.205000000000     0.288525000000     0          
T        Si     0.449400000000     0.145650000000     0.347475000000     0          
T        Si     0.302675000000     0.153750000000     0.274425000000     0          
O        O      0.454600000000     0.057050000000     0.531600000000     0          
O        O      0.259750000000     0.000000000000     0.548025000000     0          
O        O      0.291175000000     0.068800000000     0.575175000000     0          
O        O      0.250000000000     0.054550000000     0.500000000000     0          
O        O      0.319600000000     0.134600000000     0.566025000000     0          
O        O      0.312500000000     0.125000000000     0.625000000000     0          
O        O      0.375000000000     0.088850000000     0.625000000000     0          
O        O      0.375000000000     0.087450000000     0.500000000000     0          
O        O      0.437500000000     0.125000000000     0.500000000000     0          
T        Si     0.251225000000     0.045000000000     0.538525000000     0          
T        Si     0.324400000000     0.104350000000     0.597475000000     0          
T        Si     0.427675000000     0.096250000000     0.524425000000     0          
O        O      0.295400000000     0.057050000000     0.718400000000     0          
O        O      0.490250000000     0.000000000000     0.701975000000     0          
O        O      0.458825000000     0.068800000000     0.674825000000     0          
O        O      0.430400000000     0.134600000000     0.683975000000     0          
O        O      0.437500000000     0.125000000000     0.625000000000     0          
O        O      0.312500000000     0.125000000000     0.500000000000     0          
T        Si     0.498775000000     0.045000000000     0.711475000000     0          
T        Si     0.425600000000     0.104350000000     0.652525000000     0          
T        Si     0.322325000000     0.096250000000     0.725575000000     0          
O        O      0.295400000000     0.442950000000     0.718400000000     0          
O        O      0.458825000000     0.431200000000     0.674825000000     0          
O        O      0.250000000000     0.445450000000     0.500000000000     0          
O        O      0.430400000000     0.365400000000     0.683975000000     0          
O        O      0.437500000000     0.375000000000     0.625000000000     0          
O        O      0.375000000000     0.411150000000     0.625000000000     0          
O        O      0.375000000000     0.412550000000     0.500000000000     0          
O        O      0.312500000000     0.375000000000     0.500000000000     0          
T        Si     0.498775000000     0.455000000000     0.711475000000     0          
T        Si     0.425600000000     0.395650000000     0.652525000000     0          
T        Si     0.322325000000     0.403750000000     0.725575000000     0          
O        O      0.454600000000     0.442950000000     0.531600000000     0          
O        O      0.291175000000     0.431200000000     0.575175000000     0          
O        O      0.319600000000     0.365400000000     0.566025000000     0          
O        O      0.312500000000     0.375000000000     0.625000000000     0          
O        O      0.437500000000     0.375000000000     0.500000000000     0          
T        Si     0.251225000000     0.455000000000     0.538525000000     0          
T        Si     0.324400000000     0.395650000000     0.597475000000     0          
T        Si     0.427675000000     0.403750000000     0.524425000000     0          
O        O      0.329600000000     0.307050000000     0.531600000000     0          
O        O      0.384750000000     0.250000000000     0.548025000000     0          
O        O      0.416175000000     0.318800000000     0.575175000000     0          
O        O      0.375000000000     0.304550000000     0.500000000000     0          
O        O      0.444600000000     0.384600000000     0.566025000000     0          
O        O      0.250000000000     0.338850000000     0.625000000000     0          
O        O      0.250000000000     0.337450000000     0.500000000000     0          
T        Si     0.376225000000     0.295000000000     0.538525000000     0          
T        Si     0.449400000000     0.354350000000     0.597475000000     0          
T        Si     0.302675000000     0.346250000000     0.524425000000     0          
O        O      0.420400000000     0.307050000000     0.718400000000     0          
O        O      0.365250000000     0.250000000000     0.701975000000     0          
O        O      0.333825000000     0.318800000000     0.674825000000     0          
O        O      0.305400000000     0.384600000000     0.683975000000     0          
T        Si     0.373775000000     0.295000000000     0.711475000000     0          
T        Si     0.300600000000     0.354350000000     0.652525000000     0          
T        Si     0.447325000000     0.346250000000     0.725575000000     0          
O        O      0.420400000000     0.192950000000     0.718400000000     0          
O        O      0.333825000000     0.181200000000     0.674825000000     0          
O        O      0.375000000000     0.195450000000     0.500000000000     0          
O        O      0.305400000000     0.115400000000     0.683975000000     0          
O        O      0.250000000000     0.161150000000     0.625000000000     0          
O        O      0.250000000000     0.162550000000     0.500000000000     0          
T        Si     0.373775000000     0.205000000000     0.711475000000     0          
T        Si     0.300600000000     0.145650000000     0.652525000000     0          
T        Si     0.447325000000     0.153750000000     0.725575000000     0          
O        O      0.329600000000     0.192950000000     0.531600000000     0          
O        O      0.416175000000     0.181200000000     0.575175000000     0          
O        O      0.444600000000     0.115400000000     0.566025000000     0          
T        Si     0.376225000000     0.205000000000     0.538525000000     0          
T        Si     0.449400000000     0.145650000000     0.597475000000     0          
T        Si     0.302675000000     0.153750000000     0.524425000000     0          
O        O      0.454600000000     0.057050000000     0.781600000000     0          
O        O      0.259750000000     0.000000000000     0.798025000000     0          
O        O      0.291175000000     0.068800000000     0.825175000000     0          
O        O      0.250000000000     0.054550000000     0.750000000000     0          
O        O      0.319600000000     0.134600000000     0.816025000000     0          
O        O      0.312500000000     0.125000000000     0.875000000000     0          
O        O      0.375000000000     0.088850000000     0.875000000000     0          
O        O      0.375000000000     0.087450000000     0.750000000000     0          
O        O      0.437500000000     0.125000000000     0.750000000000     0          
T        Si     0.251225000000     0.045000000000     0.788525000000     0          
T        Si     0.324400000000     0.104350000000     0.847475000000     0          
T        Si     0.427675000000     0.096250000000     0.774425000000     0          
O        O      0.295400000000     0.057050000000     0.968400000000     0          
O        O      0.490250000000     0.000000000000     0.951975000000     0          
O        O      0.458825000000     0.068800000000     0.924825000000     0          
O        O      0.430400000000     0.134600000000     0.933975000000     0          
O        O      0.437500000000     0.125000000000     0.875000000000     0          
O        O      0.312500000000     0.125000000000     0.750000000000     0          
T        Si     0.498775000000     0.045000000000     0.961475000000     0          
T        Si     0.425600000000     0.104350000000     0.902525000000     0          
T        Si     0.322325000000     0.096250000000     0.975575000000     0          
O        O      0.295400000000     0.442950000000     0.968400000000     0          
O        O      0.458825000000     0.431200000000     0.924825000000     0          
O        O      0.250000000000     0.445450000000     0.750000000000     0          
O        O      0.430400000000     0.365400000000     0.933975000000     0          
O        O      0.437500000000     0.375000000000     0.875000000000     0          
O        O      0.375000000000     0.411150000000     0.875000000000     0          
O        O      0.375000000000     0.412550000000     0.750000000000     0          
O        O      0.312500000000     0.375000000000     0.750000000000     0          
T        Si     0.498775000000     0.455000000000     0.961475000000     0          
T        Si     0.425600000000     0.395650000000     0.902525000000     0          
T        Si     0.322325000000     0.403750000000     0.975575000000     0          
O        O      0.454600000000     0.442950000000     0.781600000000     0          
O        O      0.291175000000     0.431200000000     0.825175000000     0          
O        O      0.319600000000     0.365400000000     0.816025000000     0          
O        O      0.312500000000     0.375000000000     0.875000000000     0          
O        O      0.437500000000     0.375000000000     0.750000000000     0          
T        Si     0.251225000000     0.455000000000     0.788525000000     0          
T        Si     0.324400000000     0.395650000000     0.847475000000     0          
T        Si     0.427675000000     0.403750000000     0.774425000000     0          
O        O      0.329600000000     0.307050000000     0.781600000000     0          
O        O      0.384750000000     0.250000000000     0.798025000000     0          
O        O      0.416175000000     0.318800000000     0.825175000000     0          
O        O      0.375000000000     0.304550000000     0.750000000000     0          
O        O      0.444600000000     0.384600000000     0.816025000000     0          
O        O      0.250000000000     0.338850000000     0.875000000000     0          
O        O      0.250000000000     0.337450000000     0.750000000000     0          
T        Si     0.376225000000     0.295000000000     0.788525000000     0          
T        Si     0.449400000000     0.354350000000     0.847475000000     0          
T        Si     0.302675000000     0.346250000000     0.774425000000     0          
O        O      0.420400000000     0.307050000000     0.968400000000     0          
O        O      0.365250000000     0.250000000000     0.951975000000     0          
O        O      0.333825000000     0.318800000000     0.924825000000     0          
O        O      0.305400000000     0.384600000000     0.933975000000     0          
T        Si     0.373775000000     0.295000000000     0.961475000000     0          
T        Si     0.300600000000     0.354350000000     0.902525000000     0          
T        Si     0.447325000000     0.346250000000     0.975575000000     0          
O        O      0.420400000000     0.192950000000     0.968400000000     0          
O        O      0.333825000000     0.181200000000     0.924825000000     0          
O        O      0.375000000000     0.195450000000     0.750000000000     0          
O        O      0.305400000000     0.115400000000     0.933975000000     0          
O        O      0.250000000000     0.161150000000     0.875000000000     0          
O        O      0.250000000000     0.162550000000     0.750000000000     0          
T        Si     0.373775000000     0.205000000000     0.961475000000     0          
T        Si     0.300600000000     0.145650000000     0.902525000000     0          
T        Si     0.447325000000     0.153750000000     0.975575000000     0          
O        O      0.329600000000     0.192950000000     0.781600000000     0          
O        O      0.416175000000     0.181200000000     0.825175000000     0          
O        O      0.444600000000     0.115400000000     0.816025000000     0          
T        Si     0.376225000000     0.205000000000     0.788525000000     0          
T        Si     0.449400000000     0.145650000000     0.847475000000     0          
T        Si     0.302675000000     0.153750000000     0.774425000000     0          
O        O      0.454600000000     0.557050000000     0.031600000000     0          
O        O      0.259750000000     0.500000000000     0.048025000000     0          
O        O      0.291175000000     0.568800000000     0.075175000000     0          
O        O      0.250000000000     0.554550000000     0.000000000000     0          
O        O      0.319600000000     0.634600000000     0.066025000000     0          
O        O      0.312500000000     0.625000000000     0.125000000000     0          
O        O      0.375000000000     0.588850000000     0.125000000000     0          
O        O      0.375000000000     0.587450000000     0.000000000000     0          
O        O      0.437500000000     0.625000000000     0.000000000000     0          
T        Si     0.251225000000     0.545000000000     0.038525000000     0          
T        Si     0.324400000000     0.604350000000     0.097475000000     0          
T        Si     0.427675000000     0.596250000000     0.024425000000     0          
O        O      0.295400000000     0.557050000000     0.218400000000     0          
O        O      0.490250000000     0.500000000000     0.201975000000     0          
O        O      0.458825000000     0.568800000000     0.174825000000     0          
O        O      0.430400000000     0.634600000000     0.183975000000     0          
O        O      0.437500000000     0.625000000000     0.125000000000     0          
O        O      0.312500000000     0.625000000000     0.000000000000     0          
T        Si     0.498775000000     0.545000000000     0.211475000000     0          
T        Si     0.425600000000     0.604350000000     0.152525000000     0          
T        Si     0.322325000000     0.596250000000     0.225575000000     0          
O        O      0.295400000000     0.942950000000     0.218400000000     0          
O        O      0.458825000000     0.931200000000     0.174825000000     0          
O        O      0.250000000000     0.945450000000     0.000000000000     0          
O        O      0.430400000000     0.865400000000     0.183975000000     0          
O        O      0.437500000000     0.875000000000     0.125000000000     0          
O        O      0.375000000000     0.911150000000     0.125000000000     0          
O        O      0.375000000000     0.912550000000     0.000000000000     0          
O        O      0.312500000000     0.875000000000     0.000000000000     0          
T        Si     0.498775000000     0.955000000000     0.211475000000     0          
T        Si     0.425600000000     0.895650000000     0.152525000000     0          
T        Si     0.322325000000     0.903750000000     0.225575000000     0          
O        O      0.454600000000     0.942950000000     0.031600000000     0          
O        O      0.291175000000     0.931200000000     0.075175000000     0          
O        O      0.319600000000     0.865400000000     0.066025000000     0          
O        O      0.312500000000     0.875000000000     0.125000000000     0          
O        O      0.437500000000     0.875000000000     0.000000000000     0          
T        Si     0.251225000000     0.955000000000     0.038525000000     0          
T        Si     0.324400000000     0.895650000000     0.097475000000     0          
T        Si     0.427675000000     0.903750000000     0.024425000000     0          
O        O      0.329600000000     0.807050000000     0.031600000000     0          
O        O      0.384750000000     0.750000000000     0.048025000000     0          
O        O      0.416175000000     0.818800000000     0.075175000000     0          
O        O      0.375000000000     0.804550000000     0.000000000000     0          
O        O      0.444600000000     0.884600000000     0.066025000000     0          
O        O      0.250000000000     0.838850000000     0.125000000000     0          
O        O      0.250000000000     0.837450000000     0.000000000000     0          
T        Si     0.376225000000     0.795000000000     0.038525000000     0          
T        Si     0.449400000000     0.854350000000     0.097475000000     0          
T        Si     0.302675000000     0.846250000000     0.024425000000     0          
O        O      0.420400000000     0.807050000000     0.218400000000     0          
O        O      0.365250000000     0.750000000000     0.201975000000     0          
O        O      0.333825000000     0.818800000000     0.174825000000     0          
O        O      0.305400000000     0.884600000000     0.183975000000     0          
T        Si     0.373775000000     0.795000000000     0.211475000000     0          
T        Si     0.300600000000     0.854350000000     0.152525000000     0          
T        Si     0.447325000000     0.846250000000     0.225575000000     0          
O        O      0.420400000000     0.692950000000     0.218400000000     0          
O        O      0.333825000000     0.681200000000     0.174825000000     0          
O        O      0.375000000000     0.695450000000     0.000000000000     0          
O        O      0.305400000000     0.615400000000     0.183975000000     0          
O        O      0.250000000000     0.661150000000     0.125000000000     0          
O        O      0.250000000000     0.662550000000     0.000000000000     0          
T        Si     0.373775000000     0.705000000000     0.211475000000     0          
T        Si     0.300600000000     0.645650000000     0.152525000000     0          
T        Si     0.447325000000     0.653750000000     0.225575000000     0          
O        O      0.329600000000     0.692950000000     0.031600000000     0          
O        O      0.416175000000     0.681200000000     0.075175000000     0          
O        O      0.444600000000     0.615400000000     0.066025000000     0          
T        Si     0.376225000000     0.705000000000     0.038525000000     0          
T        Si     0.449400000000     0.645650000000     0.097475000000     0          
T        Si     0.302675000000     0.653750000000     0.024425000000     0          
O        O      0.454600000000     0.557050000000     0.281600000000     0          
O        O      0.259750000000     0.500000000000     0.298025000000     0          
O        O      0.291175000000     0.568800000000     0.325175000000     0          
O        O      0.250000000000     0.554550000000     0.250000000000     0          
O        O      0.319600000000     0.634600000000     0.316025000000     0          
O        O      0.312500000000     0.625000000000     0.375000000000     0          
O        O      0.375000000000     0.588850000000     0.375000000000     0          
O        O      0.375000000000     0.587450000000     0.250000000000     0          
O        O      0.437500000000     0.625000000000     0.250000000000     0          
T        Si     0.251225000000     0.545000000000     0.288525000000     0          
T        Si     0.324400000000     0.604350000000     0.347475000000     0          
T        Si     0.427675000000     0.596250000000     0.274425000000     0          
O        O      0.295400000000     0.557050000000     0.468400000000     0          
O        O      0.490250000000     0.500000000000     0.451975000000     0          
O        O      0.458825000000     0.568800000000     0.424825000000     0          
O        O      0.430400000000     0.634600000000     0.433975000000     0          
O        O      0.437500000000     0.625000000000     0.375000000000     0          
O        O      0.312500000000     0.625000000000     0.250000000000     0          
T        Si     0.498775000000     0.545000000000     0.461475000000     0          
T        Si     0.425600000000     0.604350000000     0.402525000000     0          
T        Si     0.322325000000     0.596250000000     0.475575000000     0          
O        O      0.295400000000     0.942950000000     0.468400000000     0          
O        O      0.458825000000     0.931200000000     0.424825000000     0          
O        O      0.250000000000     0.945450000000     0.250000000000     0          
O        O      0.430400000000     0.865400000000     0.433975000000     0          
O        O      0.437500000000     0.875000000000     0.375000000000     0          
O        O      0.375000000000     0.911150000000     0.375000000000     0          
O        O      0.375000000000     0.912550000000     0.250000000000     0          
O        O      0.312500000000     0.875000000000     0.250000000000     0          
T        Si     0.498775000000     0.955000000000     0.461475000000     0          
T        Si     0.425600000000     0.895650000000     0.402525000000     0          
T        Si     0.322325000000     0.903750000000     0.475575000000     0          
O        O      0.454600000000     0.942950000000     0.281600000000     0          
O        O      0.291175000000     0.931200000000     0.325175000000     0          
O        O      0.319600000000     0.865400000000     0.316025000000     0          
O        O      0.312500000000     0.875000000000     0.375000000000     0          
O        O      0.437500000000     0.875000000000     0.250000000000     0          
T        Si     0.251225000000     0.955000000000     0.288525000000     0          
T        Si     0.324400000000     0.895650000000     0.347475000000     0          
T        Si     0.427675000000     0.903750000000     0.274425000000     0          
O        O      0.329600000000     0.807050000000     0.281600000000     0          
O        O      0.384750000000     0.750000000000     0.298025000000     0          
O        O      0.416175000000     0.818800000000     0.325175000000     0          
O        O      0.375000000000     0.804550000000     0.250000000000     0          
O        O      0.444600000000     0.884600000000     0.316025000000     0          
O        O      0.250000000000     0.838850000000     0.375000000000     0          
O        O      0.250000000000     0.837450000000     0.250000000000     0          
T        Si     0.376225000000     0.795000000000     0.288525000000     0          
T        Si     0.449400000000     0.854350000000     0.347475000000     0          
T        Si     0.302675000000     0.846250000000     0.274425000000     0          
O        O      0.420400000000     0.807050000000     0.468400000000     0          
O        O      0.365250000000     0.750000000000     0.451975000000     0          
O        O      0.333825000000     0.818800000000     0.424825000000     0          
O        O      0.305400000000     0.884600000000     0.433975000000     0          
T        Si     0.373775000000     0.795000000000     0.461475000000     0          
T        Si     0.300600000000     0.854350000000     0.402525000000     0          
T        Si     0.447325000000     0.846250000000     0.475575000000     0          
O        O      0.420400000000     0.692950000000     0.468400000000     0          
O        O      0.333825000000     0.681200000000     0.424825000000     0          
O        O      0.375000000000     0.695450000000     0.250000000000     0          
O        O      0.305400000000     0.615400000000     0.433975000000     0          
O        O      0.250000000000     0.661150000000     0.375000000000     0          
O        O      0.250000000000     0.662550000000     0.250000000000     0          
T        Si     0.373775000000     0.705000000000     0.461475000000     0          
T        Si     0.300600000000     0.645650000000     0.402525000000     0          
T        Si     0.447325000000     0.653750000000     0.475575000000     0          
O        O      0.329600000000     0.692950000000     0.281600000000     0          
O        O      0.416175000000     0.681200000000     0.325175000000     0          
O        O      0.444600000000     0.615400000000     0.316025000000     0          
T        Si     0.376225000000     0.705000000000     0.288525000000     0          
T        Si     0.449400000000     0.645650000000     0.347475000000     0          
T        Si     0.302675000000     0.653750000000     0.274425000000     0          
O        O      0.454600000000     0.557050000000     0.531600000000     0          
O        O      0.259750000000     0.500000000000     0.548025000000     0          
O        O      0.291175000000     0.568800000000     0.575175000000     0          
O        O      0.250000000000     0.554550000000     0.500000000000     0          
O        O      0.319600000000     0.634600000000     0.566025000000     0          
O        O      0.312500000000     0.625000000000     0.625000000000     0          
O        O      0.375000000000     0.588850000000     0.625000000000     0          
O        O      0.375000000000     0.587450000000     0.500000000000     0          
O        O      0.437500000000     0.625000000000     0.500000000000     0          
T        Si     0.251225000000     0.545000000000     0.538525000000     0          
T        Si     0.324400000000     0.604350000000     0.597475000000     0          
T        Si     0.427675000000     0.596250000000     0.524425000000     0          
O        O      0.295400000000     0.557050000000     0.718400000000     0          
O        O      0.490250000000     0.500000000000     0.701975000000     0          
O        O      0.458825000000     0.568800000000     0.674825000000     0          
O        O      0.430400000000     0.634600000000     0.683975000000     0          
O        O      0.437500000000     0.625000000000     0.625000000000     0          
O        O      0.312500000000     0.625000000000     0.500000000000     0          
T        Si     0.498775000000     0.545000000000     0.711475000000     0          
T        Si     0.425600000000     0.604350000000     0.652525000000     0          
T        Si     0.322325000000     0.596250000000     0.725575000000     0          
O        O      0.295400000000     0.942950000000     0.718400000000     0          
O        O      0.458825000000     0.931200000000     0.674825000000     0          
O        O      0.250000000000     0.945450000000     0.500000000000     0          
O        O      0.430400000000     0.865400000000     0.683975000000     0          
O        O      0.437500000000     0.875000000000     0.625000000000     0          
O        O      0.375000000000     0.911150000000     0.625000000000     0          
O        O      0.375000000000     0.912550000000     0.500000000000     0          
O        O      0.312500000000     0.875000000000     0.500000000000     0          
T        Si     0.498775000000     0.955000000000     0.711475000000     0          
T        Si     0.425600000000     0.895650000000     0.652525000000     0          
T        Si     0.322325000000     0.903750000000     0.725575000000     0          
O        O      0.454600000000     0.942950000000     0.531600000000     0          
O        O      0.291175000000     0.931200000000     0.575175000000     0          
O        O      0.319600000000     0.865400000000     0.566025000000     0          
O        O      0.312500000000     0.875000000000     0.625000000000     0          
O        O      0.437500000000     0.875000000000     0.500000000000     0          
T        Si     0.251225000000     0.955000000000     0.538525000000     0          
T        Si     0.324400000000     0.895650000000     0.597475000000     0          
T        Si     0.427675000000     0.903750000000     0.524425000000     0          
O        O      0.329600000000     0.807050000000     0.531600000000     0          
O        O      0.384750000000     0.750000000000     0.548025000000     0          
O        O      0.416175000000     0.818800000000     0.575175000000     0          
O        O      0.375000000000     0.804550000000     0.500000000000     0          
O        O      0.444600000000     0.884600000000     0.566025000000     0          
O        O      0.250000000000     0.838850000000     0.625000000000     0          
O        O      0.250000000000     0.837450000000     0.500000000000     0          
T        Si     0.376225000000     0.795000000000     0.538525000000     0          
T        Si     0.449400000000     0.854350000000     0.597475000000     0          
T        Si     0.302675000000     0.846250000000     0.524425000000     0          
O        O      0.420400000000     0.807050000000     0.718400000000     0          
O        O      0.365250000000     0.750000000000     0.701975000000     0          
O        O      0.333825000000     0.818800000000     0.674825000000     0          
O        O      0.305400000000     0.884600000000     0.683975000000     0          
T        Si     0.373775000000     0.795000000000     0.711475000000     0          
T        Si     0.300600000000     0.854350000000     0.652525000000     0          
T        Si     0.447325000000     0.846250000000     0.725575000000     0          
O        O      0.420400000000     0.692950000000     0.718400000000     0          
O        O      0.333825000000     0.681200000000     0.674825000000     0          
O        O      0.375000000000     0.695450000000     0.500000000000     0          
O        O      0.305400000000     0.615400000000     0.683975000000     0          
O        O      0.250000000000     0.661150000000     0.625000000000     0          
O        O      0.250000000000     0.662550000000     0.500000000000     0          
T        Si     0.373775000000     0.705000000000     0.711475000000     0          
T        Si     0.300600000000     0.645650000000     0.652525000000     0          
T        Si     0.447325000000     0.653750000000     0.725575000000     0          
O        O      0.329600000000     0.692950000000     0.531600000000     0          
O        O      0.416175000000     0.681200000000     0.575175000000     0          
O        O      0.444600000000     0.615400000000     0.566025000000     0          
T        Si     0.376225000000     0.705000000000     0.538525000000     0          
T        Si     0.449400000000     0.645650000000     0.597475000000     0          
T        Si     0.302675000000     0.653750000000     0.524425000000     0          
O        O      0.454600000000     0.557050000000     0.781600000000     0          
O        O      0.259750000000     0.500000000000     0.798025000000     0          
O        O      0.291175000000     0.568800000000     0.825175000000     0          
O        O      0.250000000000     0.554550000000     0.750000000000     0          
O        O      0.319600000000     0.634600000000     0.816025000000     0          
O        O      0.312500000000     0.625000000000     0.875000000000     0          
O        O      0.375000000000     0.588850000000     0.875000000000     0          
O        O      0.375000000000     0.587450000000     0.750000000000     0          
O        O      0.437500000000     0.625000000000     0.750000000000     0          
T        Si     0.251225000000     0.545000000000     0.788525000000     0          
T        Si     0.324400000000     0.604350000000     0.847475000000     0          
T        Si     0.427675000000     0.596250000000     0.774425000000     0          
O        O      0.295400000000     0.557050000000     0.968400000000     0          
O        O      0.490250000000     0.500000000000     0.951975000000     0          
O        O      0.458825000000     0.568800000000     0.924825000000     0          
O        O      0.430400000000     0.634600000000     0.933975000000     0          
O        O      0.437500000000     0.625000000000     0.875000000000     0          
O        O      0.312500000000     0.625000000000     0.750000000000     0          
T        Si     0.498775000000     0.545000000000     0.961475000000     0          
T        Si     0.425600000000     0.604350000000     0.902525000000     0          
T        Si     0.322325000000     0.596250000000     0.975575000000     0          
O        O      0.295400000000     0.942950000000     0.968400000000     0          
O        O      0.458825000000     0.931200000000     0.924825000000     0          
O        O      0.250000000000     0.945450000000     0.750000000000     0          
O        O      0.430400000000     0.865400000000     0.933975000000     0          
O        O      0.437500000000     0.875000000000     0.875000000000     0          
O        O      0.375000000000     0.911150000000     0.875000000000     0          
O        O      0.375000000000     0.912550000000     0.750000000000     0          
O        O      0.312500000000     0.875000000000     0.750000000000     0          
T        Si     0.498775000000     0.955000000000     0.961475000000     0          
T        Si     0.425600000000     0.895650000000     0.902525000000     0          
T        Si     0.322325000000     0.903750000000     0.975575000000     0          
O        O      0.454600000000     0.942950000000     0.781600000000     0          
O        O      0.291175000000     0.931200000000     0.825175000000     0          
O        O      0.319600000000     0.865400000000     0.816025000000     0          
O        O      0.312500000000     0.875000000000     0.875000000000     0          
O        O      0.437500000000     0.875000000000     0.750000000000     0          
T        Si     0.251225000000     0.955000000000     0.788525000000     0          
T        Si     0.324400000000     0.895650000000     0.847475000000     0          
T        Si     0.427675000000     0.903750000000     0.774425000000     0          
O        O      0.329600000000     0.807050000000     0.781600000000     0          
O        O      0.384750000000     0.750000000000     0.798025000000     0          
O        O      0.416175000000     0.818800000000     0.825175000000     0          
O        O      0.375000000000     0.804550000000     0.750000000000     0          
O        O      0.444600000000     0.884600000000     0.816025000000     0          
O        O      0.250000000000     0.838850000000     0.875000000000     0          
O        O      0.250000000000     0.837450000000     0.750000000000     0          
T        Si     0.376225000000     0.795000000000     0.788525000000     0          
T        Si     0.449400000000     0.854350000000     0.847475000000     0          
T        Si     0.302675000000     0.846250000000     0.774425000000     0          
O        O      0.420400000000     0.807050000000     0.968400000000     0          
O        O      0.365250000000     0.750000000000     0.951975000000     0          
O        O      0.333825000000     0.818800000000     0.924825000000     0          
O        O      0.305400000000     0.884600000000     0.933975000000     0          
T        Si     0.373775000000     0.795000000000     0.961475000000     0          
T        Si     0.300600000000     0.854350000000     0.902525000000     0          
T        Si     0.447325000000     0.846250000000     0.975575000000     0          
O        O      0.420400000000     0.692950000000     0.968400000000     0          
O        O      0.333825000000     0.681200000000     0.924825000000     0          
O        O      0.375000000000     0.695450000000     0.750000000000     0          
O        O      0.305400000000     0.615400000000     0.933975000000     0          
O        O      0.250000000000     0.661150000000     0.875000000000     0          
O        O      0.250000000000     0.662550000000     0.750000000000     0          
T        Si     0.373775000000     0.705000000000     0.961475000000     0          
T        Si     0.300600000000     0.645650000000     0.902525000000     0          
T        Si     0.447325000000     0.653750000000     0.975575000000     0          
O        O      0.329600000000     0.692950000000     0.781600000000     0          
O        O      0.416175000000     0.681200000000     0.825175000000     0          
O        O      0.444600000000     0.615400000000     0.816025000000     0          
T        Si     0.376225000000     0.705000000000     0.788525000000     0          
T        Si     0.449400000000     0.645650000000     0.847475000000     0          
T        Si     0.302675000000     0.653750000000     0.774425000000     0          
O        O      0.704600000000     0.057050000000     0.031600000000     0          
O        O      0.509750000000     0.000000000000     0.048025000000     0          
O        O      0.541175000000     0.068800000000     0.075175000000     0          
O        O      0.500000000000     0.054550000000     0.000000000000     0          
O        O      0.569600000000     0.134600000000     0.066025000000     0          
O        O      0.562500000000     0.125000000000     0.125000000000     0          
O        O      0.625000000000     0.088850000000     0.125000000000     0          
O        O      0.625000000000     0.087450000000     0.000000000000     0          
O        O      0.687500000000     0.125000000000     0.000000000000     0          
T        Si     0.501225000000     0.045000000000     0.038525000000     0          
T        Si     0.574400000000     0.104350000000     0.097475000000     0          
T        Si     0.677675000000     0.096250000000     0.024425000000     0          
O        O      0.545400000000     0.057050000000     0.218400000000     0          
O        O      0.740250000000     0.000000000000     0.201975000000     0          
O        O      0.708825000000     0.068800000000     0.174825000000     0          
O        O      0.680400000000     0.134600000000     0.183975000000     0          
O        O      0.687500000000     0.125000000000     0.125000000000     0          
O        O      0.562500000000     0.125000000000     0.000000000000     0          
T        Si     0.748775000000     0.045000000000     0.211475000000     0          
T        Si     0.675600000000     0.104350000000     0.152525000000     0          
T        Si     0.572325000000     0.096250000000     0.225575000000     0          
O        O      0.545400000000     0.442950000000     0.218400000000     0          
O        O      0.708825000000     0.431200000000     0.174825000000     0          
O        O      0.500000000000     0.445450000000     0.000000000000     0          
O        O      0.680400000000     0.365400000000     0.183975000000     0          
O        O      0.687500000000     0.375000000000     0.125000000000     0          
O        O      0.625000000000     0.411150000000     0.125000000000     0          
O        O      0.625000000000     0.412550000000     0.000000000000     0          
O        O      0.562500000000     0.375000000000     0.000000000000     0          
T        Si     0.748775000000     0.455000000000     0.211475000000     0          
T        Si     0.675600000000     0.395650000000     0.152525000000     0          
T        Si     0.572325000000     0.403750000000     0.225575000000     0          
O        O      0.704600000000     0.442950000000     0.031600000000     0          
O        O      0.541175000000     0.431200000000     0.075175000000     0          
O        O      0.569600000000     0.365400000000     0.066025000000     0          
O        O      0.562500000000     0.375000000000     0.125000000000     0          
O        O      0.687500000000     0.375000000000     0.000000000000     0          
T        Si     0.501225000000     0.455000000000     0.038525000000     0          
T        Si     0.574400000000     0.395650000000     0.097475000000     0          
T        Si     0.677675000000     0.403750000000     0.024425000000     0          
O        O      0.579600000000     0.307050000000     0.031600000000     0          
O        O      0.634750000000     0.250000000000     0.048025000000     0          
O        O      0.666175000000     0.318800000000     0.075175000000     0          
O        O      0.625000000000     0.304550000000     0.000000000000     0          
O        O      0.694600000000     0.384600000000     0.066025000000     0          
O        O      0.500000000000     0.338850000000     0.125000000000     0          
O        O      0.500000000000     0.337450000000     0.000000000000     0          
T        Si     0.626225000000     0.295000000000     0.038525000000     0          
T        Si     0.699400000000     0.354350000000     0.097475000000     0          
T        Si     0.552675000000     0.346250000000     0.024425000000     0          
O        O      0.670400000000     0.307050000000     0.218400000000     0          
O        O      0.615250000000     0.250000000000     0.201975000000     0          
O        O      0.583825000000     0.318800000000     0.174825000000     0          
O        O      0.555400000000     0.384600000000     0.183975000000     0          
T        Si     0.623775000000     0.295000000000     0.211475000000     0          
T        Si     0.550600000000     0.354350000000     0.152525000000     0          
T        Si     0.697325000000     0.346250000000     0.225575000000     0          
O        O      0.670400000000     0.192950000000     0.218400000000     0          
O        O      0.583825000000     0.181200000000     0.174825000000     0          
O        O      0.625000000000     0.195450000000     0.000000000000     0          
O        O      0.555400000000     0.115400000000     0.183975000000     0          
O        O      0.500000000000     0.161150000000     0.125000000000     0          
O        O      0.500000000000     0.162550000000     0.000000000000     0          
T        Si     0.623775000000     0.205000000000     0.211475000000     0          
T        Si     0.550600000000     0.145650000000     0.152525000000     0          
T        Si     0.697325000000     0.153750000000     0.225575000000     0          
O        O      0.579600000000     0.192950000000     0.031600000000     0          
O        O      0.666175000000     0.181200000000     0.075175000000     0          
O        O      0.694600000000     0.115400000000     0.066025000000     0          
T        Si     0.626225000000     0.205000000000     0.038525000000     0          
T        Si     0.699400000000     0.145650000000     0.097475000000     0          
T        Si     0.552675000000     0.153750000000     0.024425000000     0          
O        O      0.704600000000     0.057050000000     0.281600000000     0          
O        O      0.509750000000     0.000000000000     0.298025000000     0          
O        O      0.541175000000     0.068800000000     0.325175000000     0          
O        O      0.500000000000     0.054550000000     0.250000000000     0          
O        O      0.569600000000     0.134600000000     0.316025000000     0          
O        O      0.562500000000     0.125000000000     0.375000000000     0          
O        O      0.625000000000     0.088850000000     0.375000000000     0          
O        O      0.625000000000     0.087450000000     0.250000000000     0          
O        O      0.687500000000     0.125000000000     0.250000000000     0          
T        Si     0.501225000000     0.045000000000     0.288525000000     0          
T        Si     0.574400000000     0.104350000000     0.347475000000     0          
T        Si     0.677675000000     0.096250000000     0.274425000000     0          
O        O      0.545400000000     0.057050000000     0.468400000000     0          
O        O      0.740250000000     0.000000000000     0.451975000000     0          
O        O      0.708825000000     0.068800000000     0.424825000000     0          
O        O      0.680400000000     0.134600000000     0.433975000000     0          
O        O      0.687500000000     0.125000000000     0.375000000000     0          
O        O      0.562500000000     0.125000000000     0.250000000000     0          
T        Si     0.748775000000     0.045000000000     0.461475000000     0          
T        Si     0.675600000000     0.104350000000     0.402525000000     0          
T        Si     0.572325000000     0.096250000000     0.475575000000     0          
O        O      0.545400000000     0.442950000000     0.468400000000     0          
O        O      0.708825000000     0.431200000000     0.424825000000     0          
O        O      0.500000000000     0.445450000000     0.250000000000     0          
O        O      0.680400000000     0.365400000000     0.433975000000     0          
O        O      0.687500000000     0.375000000000     0.375000000000     0          
O        O      0.625000000000     0.411150000000     0.375000000000     0          
O        O      0.625000000000     0.412550000000     0.250000000000     0          
O        O      0.562500000000     0.375000000000     0.250000000000     0          
T        Si     0.748775000000     0.455000000000     0.461475000000     0          
T        Si     0.675600000000     0.395650000000     0.402525000000     0          
T        Si     0.572325000000     0.403750000000     0.475575000000     0          
O        O      0.704600000000     0.442950000000     0.281600000000     0          
O        O      0.541175000000     0.431200000000     0.325175000000     0          
O        O      0.569600000000     0.365400000000     0.316025000000     0          
O        O      0.562500000000     0.375000000000     0.375000000000     0          
O        O      0.687500000000     0.375000000000     0.250000000000     0          
T        Si     0.501225000000     0.455000000000     0.288525000000     0          
T        Si     0.574400000000     0.395650000000     0.347475000000     0          
T        Si     0.677675000000     0.403750000000     0.274425000000     0          
O        O      0.579600000000     0.307050000000     0.281600000000     0          
O        O      0.634750000000     0.250000000000     0.298025000000     0          
O        O      0.666175000000     0.318800000000     0.325175000000     0          
O        O      0.625000000000     0.304550000000     0.250000000000     0          
O        O      0.694600000000     0.384600000000     0.316025000000     0          
O        O      0.500000000000     0.338850000000     0.375000000000     0          
O        O      0.500000000000     0.337450000000     0.250000000000     0          
T        Si     0.626225000000     0.295000000000     0.288525000000     0          
T        Si     0.699400000000     0.354350000000     0.347475000000     0          
T        Si     0.552675000000     0.346250000000     0.274425000000     0          
O        O      0.670400000000     0.307050000000     0.468400000000     0          
O        O      0.615250000000     0.250000000000     0.451975000000     0          
O        O      0.583825000000     0.318800000000     0.424825000000     0          
O        O      0.555400000000     0.384600000000     0.433975000000     0          
T        Si     0.623775000000     0.295000000000     0.461475000000     0          
T        Si     0.550600000000     0.354350000000     0.402525000000     0          
T        Si     0.697325000000     0.346250000000     0.475575000000     0          
O        O      0.670400000000     0.192950000000     0.468400000000     0          
O        O      0.583825000000     0.181200000000     0.424825000000     0          
O        O      0.625000000000     0.195450000000     0.250000000000     0          
O        O      0.555400000000     0.115400000000     0.433975000000     0          
O        O      0.500000000000     0.161150000000     0.375000000000     0          
O        O      0.500000000000     0.162550000000     0.250000000000     0          
T        Si     0.623775000000     0.205000000000     0.461475000000     0          
T        Si     0.550600000000     0.145650000000     0.402525000000     0          
T        Si     0.697325000000     0.153750000000     0.475575000000     0          
O        O      0.579600000000     0.192950000000     0.281600000000     0          
O        O      0.666175000000     0.181200000000     0.325175000000     0          
O        O      0.694600000000     0.115400000000     0.316025000000     0          
T        Si     0.626225000000     0.205000000000     0.288525000000     0          
T        Si     0.699400000000     0.145650000000     0.347475000000     0          
T        Si     0.552675000000     0.153750000000     0.274425000000     0          
O        O      0.704600000000     0.057050000000     0.531600000000     0          
O        O      0.509750000000     0.000000000000     0.548025000000     0          
O        O      0.541175000000     0.068800000000     0.575175000000     0          
O        O      0.500000000000     0.054550000000     0.500000000000     0          
O        O      0.569600000000     0.134600000000     0.566025000000     0          
O        O      0.562500000000     0.125000000000     0.625000000000     0          
O        O      0.625000000000     0.088850000000     0.625000000000     0          
O        O      0.625000000000     0.087450000000     0.500000000000     0          
O        O      0.687500000000     0.125000000000     0.500000000000     0          
T        Si     0.501225000000     0.045000000000     0.538525000000     0          
T        Si     0.574400000000     0.104350000000     0.597475000000     0          
T        Si     0.677675000000     0.096250000000     0.524425000000     0          
O        O      0.545400000000     0.057050000000     0.718400000000     0          
O        O      0.740250000000     0.000000000000     0.701975000000     0          
O        O      0.708825000000     0.068800000000     0.674825000000     0          
O        O      0.680400000000     0.134600000000     0.683975000000     0          
O        O      0.687500000000     0.125000000000     0.625000000000     0          
O        O      0.562500000000     0.125000000000     0.500000000000     0          
T        Si     0.748775000000     0.045000000000     0.711475000000     0          
T        Si     0.675600000000     0.104350000000     0.652525000000     0          
T        Si     0.572325000000     0.096250000000     0.725575000000     0          
O        O      0.545400000000     0.442950000000     0.718400000000     0          
O        O      0.708825000000     0.431200000000     0.674825000000     0          
O        O      0.500000000000     0.445450000000     0.500000000000     0          
O        O      0.680400000000     0.365400000000     0.683975000000     0          
O        O      0.687500000000     0.375000000000     0.625000000000     0          
O        O      0.625000000000     0.411150000000     0.625000000000     0          
O        O      0.625000000000     0.412550000000     0.500000000000     0          
O        O      0.562500000000     0.375000000000     0.500000000000     0          
T        Si     0.748775000000     0.455000000000     0.711475000000     0          
T        Si     0.675600000000     0.395650000000     0.652525000000     0          
T        Si     0.572325000000     0.403750000000     0.725575000000     0          
O        O      0.704600000000     0.442950000000     0.531600000000     0          
O        O      0.541175000000     0.431200000000     0.575175000000     0          
O        O      0.569600000000     0.365400000000     0.566025000000     0          
O        O      0.562500000000     0.375000000000     0.625000000000     0          
O        O      0.687500000000     0.375000000000     0.500000000000     0          
T        Si     0.501225000000     0.455000000000     0.538525000000     0          
T        Si     0.574400000000     0.395650000000     0.597475000000     0          
T        Si     0.677675000000     0.403750000000     0.524425000000     0          
O        O      0.579600000000     0.307050000000     0.531600000000     0          
O        O      0.634750000000     0.250000000000     0.548025000000     0          
O        O      0.666175000000     0.318800000000     0.575175000000     0          
O        O      0.625000000000     0.304550000000     0.500000000000     0          
O        O      0.694600000000     0.384600000000     0.566025000000     0          
O        O      0.500000000000     0.338850000000     0.625000000000     0          
O        O      0.500000000000     0.337450000000     0.500000000000     0          
T        Si     0.626225000000     0.295000000000     0.538525000000     0          
T        Si     0.699400000000     0.354350000000     0.597475000000     0          
T        Si     0.552675000000     0.346250000000     0.524425000000     0          
O        O      0.670400000000     0.307050000000     0.718400000000     0          
O        O      0.615250000000     0.250000000000     0.701975000000     0          
O        O      0.583825000000     0.318800000000     0.674825000000     0          
O        O      0.555400000000     0.384600000000     0.683975000000     0          
T        Si     0.623775000000     0.295000000000     0.711475000000     0          
T        Si     0.550600000000     0.354350000000     0.652525000000     0          
T        Si     0.697325000000     0.346250000000     0.725575000000     0          
O        O      0.670400000000     0.192950000000     0.718400000000     0          
O        O      0.583825000000     0.181200000000     0.674825000000     0          
O        O      0.625000000000     0.195450000000     0.500000000000     0          
O        O      0.555400000000     0.115400000000     0.683975000000     0          
O        O      0.500000000000     0.161150000000     0.625000000000     0          
O        O      0.500000000000     0.162550000000     0.500000000000     0          
T        Si     0.623775000000     0.205000000000     0.711475000000     0          
T        Si     0.550600000000     0.145650000000     0.652525000000     0          
T        Si     0.697325000000     0.153750000000     0.725575000000     0          
O        O      0.579600000000     0.192950000000     0.531600000000     0          
O        O      0.666175000000     0.181200000000     0.575175000000     0          
O        O      0.694600000000     0.115400000000     0.566025000000     0          
T        Si     0.626225000000     0.205000000000     0.538525000000     0          
T        Si     0.699400000000     0.145650000000     0.597475000000     0          
T        Si     0.552675000000     0.153750000000     0.524425000000     0          
O        O      0.704600000000     0.057050000000     0.781600000000     0          
O        O      0.509750000000     0.000000000000     0.798025000000     0          
O        O      0.541175000000     0.068800000000     0.825175000000     0          
O        O      0.500000000000     0.054550000000     0.750000000000     0          
O        O      0.569600000000     0.134600000000     0.816025000000     0          
O        O      0.562500000000     0.125000000000     0.875000000000     0          
O        O      0.625000000000     0.088850000000     0.875000000000     0          
O        O      0.625000000000     0.087450000000     0.750000000000     0          
O        O      0.687500000000     0.125000000000     0.750000000000     0          
T        Si     0.501225000000     0.045000000000     0.788525000000     0          
T        Si     0.574400000000     0.104350000000     0.847475000000     0          
T        Si     0.677675000000     0.096250000000     0.774425000000     0          
O        O      0.545400000000     0.057050000000     0.968400000000     0          
O        O      0.740250000000     0.000000000000     0.951975000000     0          
O        O      0.708825000000     0.068800000000     0.924825000000     0          
O        O      0.680400000000     0.134600000000     0.933975000000     0          
O        O      0.687500000000     0.125000000000     0.875000000000     0          
O        O      0.562500000000     0.125000000000     0.750000000000     0          
T        Si     0.748775000000     0.045000000000     0.961475000000     0          
T        Si     0.675600000000     0.104350000000     0.902525000000     0          
T        Si     0.572325000000     0.096250000000     0.975575000000     0          
O        O      0.545400000000     0.442950000000     0.968400000000     0          
O        O      0.708825000000     0.431200000000     0.924825000000     0          
O        O      0.500000000000     0.445450000000     0.750000000000     0          
O        O      0.680400000000     0.365400000000     0.933975000000     0          
O        O      0.687500000000     0.375000000000     0.875000000000     0          
O        O      0.625000000000     0.411150000000     0.875000000000     0          
O        O      0.625000000000     0.412550000000     0.750000000000     0          
O        O      0.562500000000     0.375000000000     0.750000000000     0          
T        Si     0.748775000000     0.455000000000     0.961475000000     0          
T        Si     0.675600000000     0.395650000000     0.902525000000     0          
T        Si     0.572325000000     0.403750000000     0.975575000000     0          
O        O      0.704600000000     0.442950000000     0.781600000000     0          
O        O      0.541175000000     0.431200000000     0.825175000000     0          
O        O      0.569600000000     0.365400000000     0.816025000000     0          
O        O      0.562500000000     0.375000000000     0.875000000000     0          
O        O      0.687500000000     0.375000000000     0.750000000000     0          
T        Si     0.501225000000     0.455000000000     0.788525000000     0          
T        Si     0.574400000000     0.395650000000     0.847475000000     0          
T        Si     0.677675000000     0.403750000000     0.774425000000     0          
O        O      0.579600000000     0.307050000000     0.781600000000     0          
O        O      0.634750000000     0.250000000000     0.798025000000     0          
O        O      0.666175000000     0.318800000000     0.825175000000     0          
O        O      0.625000000000     0.304550000000     0.750000000000     0          
O        O      0.694600000000     0.384600000000     0.816025000000     0          
O        O      0.500000000000     0.338850000000     0.875000000000     0          
O        O      0.500000000000     0.337450000000     0.750000000000     0          
T        Si     0.626225000000     0.295000000000     0.788525000000     0          
T        Si     0.699400000000     0.354350000000     0.847475000000     0          
T        Si     0.552675000000     0.346250000000     0.774425000000     0          
O        O      0.670400000000     0.307050000000     0.968400000000     0          
O        O      0.615250000000     0.250000000000     0.951975000000     0          
O        O      0.583825000000     0.318800000000     0.924825000000     0          
O        O      0.555400000000     0.384600000000     0.933975000000     0          
T        Si     0.623775000000     0.295000000000     0.961475000000     0          
T        Si     0.550600000000     0.354350000000     0.902525000000     0          
T        Si     0.697325000000     0.346250000000     0.975575000000     0          
O        O      0.670400000000     0.192950000000     0.968400000000     0          
O        O      0.583825000000     0.181200000000     0.924825000000     0          
O        O      0.625000000000     0.195450000000     0.750000000000     0          
O        O      0.555400000000     0.115400000000     0.933975000000     0          
O        O      0.500000000000     0.161150000000     0.875000000000     0          
O        O      0.500000000000     0.162550000000     0.750000000000     0          
T        Si     0.623775000000     0.205000000000     0.961475000000     0          
T        Si     0.550600000000     0.145650000000     0.902525000000     0          
T        Si     0.697325000000     0.153750000000     0.975575000000     0          
O        O      0.579600000000     0.192950000000     0.781600000000     0          
O        O      0.666175000000     0.181200000000     0.825175000000     0          
O        O      0.694600000000     0.115400000000     0.816025000000     0          
T        Si     0.626225000000     0.205000000000     0.788525000000     0          
T        Si     0.699400000000     0.145650000000     0.847475000000     0          
T        Si     0.552675000000     0.153750000000     0.774425000000     0          
O        O      0.704600000000     0.557050000000     0.031600000000     0          
O        O      0.509750000000     0.500000000000     0.048025000000     0          
O        O      0.541175000000     0.568800000000     0.075175000000     0          
O        O      0.500000000000     0.554550000000     0.000000000000     0          
O        O      0.569600000000     0.634600000000     0.066025000000     0          
O        O      0.562500000000     0.625000000000     0.125000000000     0          
O        O      0.625000000000     0.588850000000     0.125000000000     0          
O        O      0.625000000000     0.587450000000     0.000000000000     0          
O        O      0.687500000000     0.625000000000     0.000000000000     0          
T        Si     0.501225000000     0.545000000000     0.038525000000     0          
T        Si     0.574400000000     0.604350000000     0.097475000000     0          
T        Si     0.677675000000     0.596250000000     0.024425000000     0          
O        O      0.545400000000     0.557050000000     0.218400000000     0          
O        O      0.740250000000     0.500000000000     0.201975000000     0          
O        O      0.708825000000     0.568800000000     0.174825000000     0          
O        O      0.680400000000     0.634600000000     0.183975000000     0          
O        O      0.687500000000     0.625000000000     0.125000000000     0          
O        O      0.562500000000     0.625000000000     0.000000000000     0          
T        Si     0.748775000000     0.545000000000     0.211475000000     0          
T        Si     0.675600000000     0.604350000000     0.152525000000     0          
T        Si     0.572325000000     0.596250000000     0.225575000000     0          
O        O      0.545400000000     0.942950000000     0.218400000000     0          
O        O      0.708825000000     0.931200000000     0.174825000000     0          
O        O      0.500000000000     0.945450000000     0.000000000000     0          
O        O      0.680400000000     0.865400000000     0.183975000000     0          
O        O      0.687500000000     0.875000000000     0.125000000000     0          
O        O      0.625000000000     0.911150000000     0.125000000000     0          
O        O      0.625000000000     0.912550000000     0.000000000000     0          
O        O      0.562500000000     0.875000000000     0.000000000000     0          
T        Si     0.748775000000     0.955000000000     0.211475000000     0          
T        Si     0.675600000000     0.895650000000     0.152525000000     0          
T        Si     0.572325000000     0.903750000000     0.225575000000     0          
O        O      0.704600000000     0.942950000000     0.031600000000     0          
O        O      0.541175000000     0.931200000000     0.075175000000     0          
O        O      0.569600000000     0.865400000000     0.066025000000     0          
O        O      0.562500000000     0.875000000000     0.125000000000     0          
O        O      0.687500000000     0.875000000000     0.000000000000     0          
T        Si     0.501225000000     0.955000000000     0.038525000000     0          
T        Si     0.574400000000     0.895650000000     0.097475000000     0          
T        Si     0.677675000000     0.903750000000     0.024425000000     0          
O        O      0.579600000000     0.807050000000     0.031600000000     0          
O        O      0.634750000000     0.750000000000     0.048025000000     0          
O        O      0.666175000000     0.818800000000     0.075175000000     0          
O        O      0.625000000000     0.804550000000     0.000000000000     0          
O        O      0.694600000000     0.884600000000     0.066025000000     0          
O        O      0.500000000000     0.838850000000     0.125000000000     0          
O        O      0.500000000000     0.837450000000     0.000000000000     0          
T        Si     0.626225000000     0.795000000000     0.038525000000     0          
T        Si     0.699400000000     0.854350000000     0.097475000000     0          
T        Si     0.552675000000     0.846250000000     0.024425000000     0          
O        O      0.670400000000     0.807050000000     0.218400000000     0          
O        O      0.615250000000     0.750000000000     0.201975000000     0          
O        O      0.583825000000     0.818800000000     0.174825000000     0          
O        O      0.555400000000     0.884600000000     0.183975000000     0          
T        Si     0.623775000000     0.795000000000     0.211475000000     0          
T        Si     0.550600000000     0.854350000000     0.152525000000     0          
T        Si     0.697325000000     0.846250000000     0.225575000000     0          
O        O      0.670400000000     0.692950000000     0.218400000000     0          
O        O      0.583825000000     0.681200000000     0.174825000000     0          
O        O      0.625000000000     0.695450000000     0.000000000000     0          
O        O      0.555400000000     0.615400000000     0.183975000000     0          
O        O      0.500000000000     0.661150000000     0.125000000000     0          
O        O      0.500000000000     0.662550000000     0.000000000000     0          
T        Si     0.623775000000     0.705000000000     0.211475000000     0          
T        Si     0.550600000000     0.645650000000     0.152525000000     0          
T        Si     0.697325000000     0.653750000000     0.225575000000     0          
O        O      0.579600000000     0.692950000000     0.031600000000     0          
O        O      0.666175000000     0.681200000000     0.075175000000     0          
O        O      0.694600000000     0.615400000000     0.066025000000     0          
T        Si     0.626225000000     0.705000000000     0.038525000000     0          
T        Si     0.699400000000     0.645650000000     0.097475000000     0          
T        Si     0.552675000000     0.653750000000     0.024425000000     0          
O        O      0.704600000000     0.557050000000     0.281600000000     0          
O        O      0.509750000000     0.500000000000     0.298025000000     0          
O        O      0.541175000000     0.568800000000     0.325175000000     0          
O        O      0.500000000000     0.554550000000     0.250000000000     0          
O        O      0.569600000000     0.634600000000     0.316025000000     0          
O        O      0.562500000000     0.625000000000     0.375000000000     0          
O        O      0.625000000000     0.588850000000     0.375000000000     0          
O        O      0.625000000000     0.587450000000     0.250000000000     0          
O        O      0.687500000000     0.625000000000     0.250000000000     0          
T        Si     0.501225000000     0.545000000000     0.288525000000     0          
T        Si     0.574400000000     0.604350000000     0.347475000000     0          
T        Si     0.677675000000     0.596250000000     0.274425000000     0          
O        O      0.545400000000     0.557050000000     0.468400000000     0          
O        O      0.740250000000     0.500000000000     0.451975000000     0          
O        O      0.708825000000     0.568800000000     0.424825000000     0          
O        O      0.680400000000     0.634600000000     0.433975000000     0          
O        O      0.687500000000     0.625000000000     0.375000000000     0          
O        O      0.562500000000     0.625000000000     0.250000000000     0          
T        Si     0.748775000000     0.545000000000     0.461475000000     0          
T        Si     0.675600000000     0.604350000000     0.402525000000     0          
T        Si     0.572325000000     0.596250000000     0.475575000000     0          
O        O      0.545400000000     0.942950000000     0.468400000000     0          
O        O      0.708825000000     0.931200000000     0.424825000000     0          
O        O      0.500000000000     0.945450000000     0.250000000000     0          
O        O      0.680400000000     0.865400000000     0.433975000000     0          
O        O      0.687500000000     0.875000000000     0.375000000000     0          
O        O      0.625000000000     0.911150000000     0.375000000000     0          
O        O      0.625000000000     0.912550000000     0.250000000000     0          
O        O      0.562500000000     0.875000000000     0.250000000000     0          
T        Si     0.748775000000     0.955000000000     0.461475000000     0          
T        Si     0.675600000000     0.895650000000     0.402525000000     0          
T        Si     0.572325000000     0.903750000000     0.475575000000     0          
O        O      0.704600000000     0.942950000000     0.281600000000     0          
O        O      0.541175000000     0.931200000000     0.325175000000     0          
O        O      0.569600000000     0.865400000000     0.316025000000     0          
O        O      0.562500000000     0.875000000000     0.375000000000     0          
O        O      0.687500000000     0.875000000000     0.250000000000     0          
T        Si     0.501225000000     0.955000000000     0.288525000000     0          
T        Si     0.574400000000     0.895650000000     0.347475000000     0          
T        Si     0.677675000000     0.903750000000     0.274425000000     0          
O        O      0.579600000000     0.807050000000     0.281600000000     0          
O        O      0.634750000000     0.750000000000     0.298025000000     0          
O        O      0.666175000000     0.818800000000     0.325175000000     0          
O        O      0.625000000000     0.804550000000     0.250000000000     0          
O        O      0.694600000000     0.884600000000     0.316025000000     0          
O        O      0.500000000000     0.838850000000     0.375000000000     0          
O        O      0.500000000000     0.837450000000     0.250000000000     0          
T        Si     0.626225000000     0.795000000000     0.288525000000     0          
T        Si     0.699400000000     0.854350000000     0.347475000000     0          
T        Si     0.552675000000     0.846250000000     0.274425000000     0          
O        O      0.670400000000     0.807050000000     0.468400000000     0          
O        O      0.615250000000     0.750000000000     0.451975000000     0          
O        O      0.583825000000     0.818800000000     0.424825000000     0          
O        O      0.555400000000     0.884600000000     0.433975000000     0          
T        Si     0.623775000000     0.795000000000     0.461475000000     0          
T        Si     0.550600000000     0.854350000000     0.402525000000     0          
T        Si     0.697325000000     0.846250000000     0.475575000000     0          
O        O      0.670400000000     0.692950000000     0.468400000000     0          
O        O      0.583825000000     0.681200000000     0.424825000000     0          
O        O      0.625000000000     0.695450000000     0.250000000000     0          
O        O      0.555400000000     0.615400000000     0.433975000000     0          
O        O      0.500000000000     0.661150000000     0.375000000000     0          
O        O      0.500000000000     0.662550000000     0.250000000000     0          
T        Si     0.623775000000     0.705000000000     0.461475000000     0          
T        Si     0.550600000000     0.645650000000     0.402525000000     0          
T        Si     0.697325000000     0.653750000000     0.475575000000     0          
O        O      0.579600000000     0.692950000000     0.281600000000     0          
O        O      0.666175000000     0.681200000000     0.325175000000     0          
O        O      0.694600000000     0.615400000000     0.316025000000     0          
T        Si     0.626225000000     0.705000000000     0.288525000000     0          
T        Si     0.699400000000     0.645650000000     0.347475000000     0          
T        Si     0.552675000000     0.653750000000     0.274425000000     0          
O        O      0.704600000000     0.557050000000     0.531600000000     0          
O        O      0.509750000000     0.500000000000     0.548025000000     0          
O        O      0.541175000000     0.568800000000     0.575175000000     0          
O        O      0.500000000000     0.554550000000     0.500000000000     0          
O        O      0.569600000000     0.634600000000     0.566025000000     0          
O        O      0.562500000000     0.625000000000     0.625000000000     0          
O        O      0.625000000000     0.588850000000     0.625000000000     0          
O        O      0.625000000000     0.587450000000     0.500000000000     0          
O        O      0.687500000000     0.625000000000     0.500000000000     0          
T        Si     0.501225000000     0.545000000000     0.538525000000     0          
T        Si     0.574400000000     0.604350000000     0.597475000000     0          
T        Si     0.677675000000     0.596250000000     0.524425000000     0          
O        O      0.545400000000     0.557050000000     0.718400000000     0          
O        O      0.740250000000     0.500000000000     0.701975000000     0          
O        O      0.708825000000     0.568800000000     0.674825000000     0          
O        O      0.680400000000     0.634600000000     0.683975000000     0          
O        O      0.687500000000     0.625000000000     0.625000000000     0          
O        O      0.562500000000     0.625000000000     0.500000000000     0          
T        Si     0.748775000000     0.545000000000     0.711475000000     0          
T        Si     0.675600000000     0.604350000000     0.652525000000     0          
T        Si     0.572325000000     0.596250000000     0.725575000000     0          
O        O      0.545400000000     0.942950000000     0.718400000000     0          
O        O      0.708825000000     0.931200000000     0.674825000000     0          
O        O      0.500000000000     0.945450000000     0.500000000000     0          
O        O      0.680400000000     0.865400000000     0.683975000000     0          
O        O      0.687500000000     0.875000000000     0.625000000000     0          
O        O      0.625000000000     0.911150000000     0.625000000000     0          
O        O      0.625000000000     0.912550000000     0.500000000000     0          
O        O      0.562500000000     0.875000000000     0.500000000000     0          
T        Si     0.748775000000     0.955000000000     0.711475000000     0          
T        Si     0.675600000000     0.895650000000     0.652525000000     0          
T        Si     0.572325000000     0.903750000000     0.725575000000     0          
O        O      0.704600000000     0.942950000000     0.531600000000     0          
O        O      0.541175000000     0.931200000000     0.575175000000     0          
O        O      0.569600000000     0.865400000000     0.566025000000     0          
O        O      0.562500000000     0.875000000000     0.625000000000     0          
O        O      0.687500000000     0.875000000000     0.500000000000     0          
T        Si     0.501225000000     0.955000000000     0.538525000000     0          
T        Si     0.574400000000     0.895650000000     0.597475000000     0          
T        Si     0.677675000000     0.903750000000     0.524425000000     0          
O        O      0.579600000000     0.807050000000     0.531600000000     0          
O        O      0.634750000000     0.750000000000     0.548025000000     0          
O        O      0.666175000000     0.818800000000     0.575175000000     0          
O        O      0.625000000000     0.804550000000     0.500000000000     0          
O        O      0.694600000000     0.884600000000     0.566025000000     0          
O        O      0.500000000000     0.838850000000     0.625000000000     0          
O        O      0.500000000000     0.837450000000     0.500000000000     0          
T        Si     0.626225000000     0.795000000000     0.538525000000     0          
T        Si     0.699400000000     0.854350000000     0.597475000000     0          
T        Si     0.552675000000     0.846250000000     0.524425000000     0          
O        O      0.670400000000     0.807050000000     0.718400000000     0          
O        O      0.615250000000     0.750000000000     0.701975000000     0          
O        O      0.583825000000     0.818800000000     0.674825000000     0          
O        O      0.555400000000     0.884600000000     0.683975000000     0          
T        Si     0.623775000000     0.795000000000     0.711475000000     0          
T        Si     0.550600000000     0.854350000000     0.652525000000     0          
T        Si     0.697325000000     0.846250000000     0.725575000000     0          
O        O      0.670400000000     0.692950000000     0.718400000000     0          
O        O      0.583825000000     0.681200000000     0.674825000000     0          
O        O      0.625000000000     0.695450000000     0.500000000000     0          
O        O      0.555400000000     0.615400000000     0.683975000000     0          
O        O      0.500000000000     0.661150000000     0.625000000000     0          
O        O      0.500000000000     0.662550000000     0.500000000000     0          
T        Si     0.623775000000     0.705000000000     0.711475000000     0          
T        Si     0.550600000000     0.645650000000     0.652525000000     0          
T        Si     0.697325000000     0.653750000000     0.725575000000     0          
O        O      0.579600000000     0.692950000000     0.531600000000     0          
O        O      0.666175000000     0.681200000000     0.575175000000     0          
O        O      0.694600000000     0.615400000000     0.566025000000     0          
T        Si     0.626225000000     0.705000000000     0.538525000000     0          
T        Si     0.699400000000     0.645650000000     0.597475000000     0          
T        Si     0.552675000000     0.653750000000     0.524425000000     0          
O        O      0.704600000000     0.557050000000     0.781600000000     0          
O        O      0.509750000000     0.500000000000     0.798025000000     0          
O        O      0.541175000000     0.568800000000     0.825175000000     0          
O        O      0.500000000000     0.554550000000     0.750000000000     0          
O        O      0.569600000000     0.634600000000     0.816025000000     0          
O        O      0.562500000000     0.625000000000     0.875000000000     0          
O        O      0.625000000000     0.588850000000     0.875000000000     0          
O        O      0.625000000000     0.587450000000     0.750000000000     0          
O        O      0.687500000000     0.625000000000     0.750000000000     0          
T        Si     0.501225000000     0.545000000000     0.788525000000     0          
T        Si     0.574400000000     0.604350000000     0.847475000000     0          
T        Si     0.677675000000     0.596250000000     0.774425000000     0          
O        O      0.545400000000     0.557050000000     0.968400000000     0          
O        O      0.740250000000     0.500000000000     0.951975000000     0          
O        O      0.708825000000     0.568800000000     0.924825000000     0          
O        O      0.680400000000     0.634600000000     0.933975000000     0          
O        O      0.687500000000     0.625000000000     0.875000000000     0          
O        O      0.562500000000     0.625000000000     0.750000000000     0          
T        Si     0.748775000000     0.545000000000     0.961475000000     0          
T        Si     0.675600000000     0.604350000000     0.902525000000     0          
T        Si     0.572325000000     0.596250000000     0.975575000000     0          
O        O      0.545400000000     0.942950000000     0.968400000000     0          
O        O      0.708825000000     0.931200000000     0.924825000000     0          
O        O      0.500000000000     0.945450000000     0.750000000000     0          
O        O      0.680400000000     0.865400000000     0.933975000000     0          
O        O      0.687500000000     0.875000000000     0.875000000000     0          
O        O      0.625000000000     0.911150000000     0.875000000000     0          
O        O      0.625000000000     0.912550000000     0.750000000000     0          
O        O      0.562500000000     0.875000000000     0.750000000000     0          
T        Si     0.748775000000     0.955000000000     0.961475000000     0          
T        Si     0.675600000000     0.895650000000     0.902525000000     0          
T        Si     0.572325000000     0.903750000000     0.975575000000     0          
O        O      0.704600000000     0.942950000000     0.781600000000     0          
O        O      0.541175000000     0.931200000000     0.825175000000     0          
O        O      0.569600000000     0.865400000000     0.816025000000     0          
O        O      0.562500000000     0.875000000000     0.875000000000     0          
O        O      0.687500000000     0.875000000000     0.750000000000     0          
T        Si     0.501225000000     0.955000000000     0.788525000000     0          
T        Si     0.574400000000     0.895650000000     0.847475000000     0          
T        Si     0.677675000000     0.903750000000     0.774425000000     0          
O        O      0.579600000000     0.807050000000     0.781600000000     0          
O        O      0.634750000000     0.750000000000     0.798025000000     0          
O        O      0.666175000000     0.818800000000     0.825175000000     0          
O        O      0.625000000000     0.804550000000     0.750000000000     0          
O        O      0.694600000000     0.884600000000     0.816025000000     0          
O        O      0.500000000000     0.838850000000     0.875000000000     0          
O        O      0.500000000000     0.837450000000     0.750000000000     0          
T        Si     0.626225000000     0.795000000000     0.788525000000     0          
T        Si     0.699400000000     0.854350000000     0.847475000000     0          
T        Si     0.552675000000     0.846250000000     0.774425000000     0          
O        O      0.670400000000     0.807050000000     0.968400000000     0          
O        O      0.615250000000     0.750000000000     0.951975000000     0          
O        O      0.583825000000     0.818800000000     0.924825000000     0          
O        O      0.555400000000     0.884600000000     0.933975000000     0          
T        Si     0.623775000000     0.795000000000     0.961475000000     0          
T        Si     0.550600000000     0.854350000000     0.902525000000     0          
T        Si     0.697325000000     0.846250000000     0.975575000000     0          
O        O      0.670400000000     0.692950000000     0.968400000000     0          
O        O      0.583825000000     0.681200000000     0.924825000000     0          
O        O      0.625000000000     0.695450000000     0.750000000000     0          
O        O      0.555400000000     0.615400000000     0.933975000000     0          
O        O      0.500000000000     0.661150000000     0.875000000000     0          
O        O      0.500000000000     0.662550000000     0.750000000000     0          
T        Si     0.623775000000     0.705000000000     0.961475000000     0          
T        Si     0.550600000000     0.645650000000     0.902525000000     0          
T        Si     0.697325000000     0.653750000000     0.975575000000     0          
O        O      0.579600000000     0.692950000000     0.781600000000     0          
O        O      0.666175000000     0.681200000000     0.825175000000     0          
O        O      0.694600000000     0.615400000000     0.816025000000     0          
T        Si     0.626225000000     0.705000000000     0.788525000000     0          
T        Si     0.699400000000     0.645650000000     0.847475000000     0          
T        Si     0.552675000000     0.653750000000     0.774425000000     0          
O        O      0.954600000000     0.057050000000     0.031600000000     0          
O        O      0.759750000000     0.000000000000     0.048025000000     0          
O        O      0.791175000000     0.068800000000     0.075175000000     0          
O        O      0.750000000000     0.054550000000     0.000000000000     0          
O        O      0.819600000000     0.134600000000     0.066025000000     0          
O        O      0.812500000000     0.125000000000     0.125000000000     0          
O        O      0.875000000000     0.088850000000     0.125000000000     0          
O        O      0.875000000000     0.087450000000     0.000000000000     0          
O        O      0.937500000000     0.125000000000     0.000000000000     0          
T        Si     0.751225000000     0.045000000000     0.038525000000     0          
T        Si     0.824400000000     0.104350000000     0.097475000000     0          
T        Si     0.927675000000     0.096250000000     0.024425000000     0          
O        O      0.795400000000     0.057050000000     0.218400000000     0          
O        O      0.990250000000     0.000000000000     0.201975000000     0          
O        O      0.958825000000     0.068800000000     0.174825000000     0          
O        O      0.930400000000     0.134600000000     0.183975000000     0          
O        O      0.937500000000     0.125000000000     0.125000000000     0          
O        O      0.812500000000     0.125000000000     0.000000000000     0          
T        Si     0.998775000000     0.045000000000     0.211475000000     0          
T        Si     0.925600000000     0.104350000000     0.152525000000     0          
T        Si     0.822325000000     0.096250000000     0.225575000000     0          
O        O      0.795400000000     0.442950000000     0.218400000000     0          
O        O      0.958825000000     0.431200000000     0.174825000000     0          
O        O      0.750000000000     0.445450000000     0.000000000000     0          
O        O      0.930400000000     0.365400000000     0.183975000000     0          
O        O      0.937500000000     0.375000000000     0.125000000000     0          
O        O      0.875000000000     0.411150000000     0.125000000000     0          
O        O      0.875000000000     0.412550000000     0.000000000000     0          
O        O      0.812500000000     0.375000000000     0.000000000000     0          
T        Si     0.998775000000     0.455000000000     0.211475000000     0          
T        Si     0.925600000000     0.395650000000     0.152525000000     0          
T        Si     0.822325000000     0.403750000000     0.225575000000     0          
O        O      0.954600000000     0.442950000000     0.031600000000     0          
O        O      0.791175000000     0.431200000000     0.075175000000     0          
O        O      0.819600000000     0.365400000000     0.066025000000     0          
O        O      0.812500000000     0.375000000000     0.125000000000     0          
O        O      0.937500000000     0.375000000000     0.000000000000     0          
T        Si     0.751225000000     0.455000000000     0.038525000000     0          
T        Si     0.824400000000     0.395650000000     0.097475000000     0          
T        Si     0.927675000000     0.403750000000     0.024425000000     0          
O        O      0.829600000000     0.307050000000     0.031600000000     0          
O        O      0.884750000000     0.250000000000     0.048025000000     0          
O        O      0.916175000000     0.318800000000     0.075175000000     0          
O        O      0.875000000000     0.304550000000     0.000000000000     0          
O        O      0.944600000000     0.384600000000     0.066025000000     0          
O        O      0.750000000000     0.338850000000     0.125000000000     0          
O        O      0.750000000000     0.337450000000     0.000000000000     0          
T        Si     0.876225000000     0.295000000000     0.038525000000     0          
T        Si     0.949400000000     0.354350000000     0.097475000000     0          
T        Si     0.802675000000     0.346250000000     0.024425000000     0          
O        O      0.920400000000     0.307050000000     0.218400000000     0          
O        O      0.865250000000     0.250000000000     0.201975000000     0          
O        O      0.833825000000     0.318800000000     0.174825000000     0          
O        O      0.805400000000     0.384600000000     0.183975000000     0          
T        Si     0.873775000000     0.295000000000     0.211475000000     0          
T        Si     0.800600000000     0.354350000000     0.152525000000     0          
T        Si     0.947325000000     0.346250000000     0.225575000000     0          
O        O      0.920400000000     0.192950000000     0.218400000000     0          
O        O      0.833825000000     0.181200000000     0.174825000000     0          
O        O      0.875000000000     0.195450000000     0.000000000000     0          
O        O      0.805400000000     0.115400000000     0.183975000000     0          
O        O      0.750000000000     0.161150000000     0.125000000000     0          
O        O      0.750000000000     0.162550000000     0.000000000000     0          
T        Si     0.873775000000     0.205000000000     0.211475000000     0          
T        Si     0.800600000000     0.145650000000     0.152525000000     0          
T        Si     0.947325000000     0.153750000000     0.225575000000     0          
O        O      0.829600000000     0.192950000000     0.031600000000     0          
O        O      0.916175000000     0.181200000000     0.075175000000     0          
O        O      0.944600000000     0.115400000000     0.066025000000     0          
T        Si     0.876225000000     0.205000000000     0.038525000000     0          
T        Si     0.949400000000     0.145650000000     0.097475000000     0          
T        Si     0.802675000000     0.153750000000     0.024425000000     0          
O        O      0.954600000000     0.057050000000     0.281600000000     0          
O        O      0.759750000000     0.000000000000     0.298025000000     0          
O        O      0.791175000000     0.068800000000     0.325175000000     0          
O        O      0.750000000000     0.054550000000     0.250000000000     0          
O        O      0.819600000000     0.134600000000     0.316025000000     0          
O        O      0.812500000000     0.125000000000     0.375000000000     0          
O        O      0.875000000000     0.088850000000     0.375000000000     0          
O        O      0.875000000000     0.087450000000     0.250000000000     0          
O        O      0.937500000000     0.125000000000     0.250000000000     0          
T        Si     0.751225000000     0.045000000000     0.288525000000     0          
T        Si     0.824400000000     0.104350000000     0.347475000000     0          
T        Si     0.927675000000     0.096250000000     0.274425000000     0          
O        O      0.795400000000     0.057050000000     0.468400000000     0          
O        O      0.990250000000     0.000000000000     0.451975000000     0          
O        O      0.958825000000     0.068800000000     0.424825000000     0          
O        O      0.930400000000     0.134600000000     0.433975000000     0          
O        O      0.937500000000     0.125000000000     0.375000000000     0          
O        O      0.812500000000     0.125000000000     0.250000000000     0          
T        Si     0.998775000000     0.045000000000     0.461475000000     0          
T        Si     0.925600000000     0.104350000000     0.402525000000     0          
T        Si     0.822325000000     0.096250000000     0.475575000000     0          
O        O      0.795400000000     0.442950000000     0.468400000000     0          
O        O      0.958825000000     0.431200000000     0.424825000000     0          
O        O      0.750000000000     0.445450000000     0.250000000000     0          
O        O      0.930400000000     0.365400000000     0.433975000000     0          
O        O      0.937500000000     0.375000000000     0.375000000000     0          
O        O      0.875000000000     0.411150000000     0.375000000000     0          
O        O      0.875000000000     0.412550000000     0.250000000000     0          
O        O      0.812500000000     0.375000000000     0.250000000000     0          
T        Si     0.998775000000     0.455000000000     0.461475000000     0          
T        Si     0.925600000000     0.395650000000     0.402525000000     0          
T        Si     0.822325000000     0.403750000000     0.475575000000     0          
O        O      0.954600000000     0.442950000000     0.281600000000     0          
O        O      0.791175000000     0.431200000000     0.325175000000     0          
O        O      0.819600000000     0.365400000000     0.316025000000     0          
O        O      0.812500000000     0.375000000000     0.375000000000     0          
O        O      0.937500000000     0.375000000000     0.250000000000     0          
T        Si     0.751225000000     0.455000000000     0.288525000000     0          
T        Si     0.824400000000     0.395650000000     0.347475000000     0          
T        Si     0.927675000000     0.403750000000     0.274425000000     0          
O        O      0.829600000000     0.307050000000     0.281600000000     0          
O        O      0.884750000000     0.250000000000     0.298025000000     0          
O        O      0.916175000000     0.318800000000     0.325175000000     0          
O        O      0.875000000000     0.304550000000     0.250000000000     0          
O        O      0.944600000000     0.384600000000     0.316025000000     0          
O        O      0.750000000000     0.338850000000     0.375000000000     0          
O        O      0.750000000000     0.337450000000     0.250000000000     0          
T        Si     0.876225000000     0.295000000000     0.288525000000     0          
T        Si     0.949400000000     0.354350000000     0.347475000000     0          
T        Si     0.802675000000     0.346250000000     0.274425000000     0          
O        O      0.920400000000     0.307050000000     0.468400000000     0          
O        O      0.865250000000     0.250000000000     0.451975000000     0          
O        O      0.833825000000     0.318800000000     0.424825000000     0          
O        O      0.805400000000     0.384600000000     0.433975000000     0          
T        Si     0.873775000000     0.295000000000     0.461475000000     0          
T        Si     0.800600000000     0.354350000000     0.402525000000     0          
T        Si     0.947325000000     0.346250000000     0.475575000000     0          
O        O      0.920400000000     0.192950000000     0.468400000000     0          
O        O      0.833825000000     0.181200000000     0.424825000000     0          
O        O      0.875000000000     0.195450000000     0.250000000000     0          
O        O      0.805400000000     0.115400000000     0.433975000000     0          
O        O      0.750000000000     0.161150000000     0.375000000000     0          
O        O      0.750000000000     0.162550000000     0.250000000000     0          
T        Si     0.873775000000     0.205000000000     0.461475000000     0          
T        Si     0.800600000000     0.145650000000     0.402525000000     0          
T        Si     0.947325000000     0.153750000000     0.475575000000     0          
O        O      0.829600000000     0.192950000000     0.281600000000     0          
O        O      0.916175000000     0.181200000000     0.325175000000     0          
O        O      0.944600000000     0.115400000000     0.316025000000     0          
T        Si     0.876225000000     0.205000000000     0.288525000000     0          
T        Si     0.949400000000     0.145650000000     0.347475000000     0          
T        Si     0.802675000000     0.153750000000     0.274425000000     0          
O        O      0.954600000000     0.057050000000     0.531600000000     0          
O        O      0.759750000000     0.000000000000     0.548025000000     0          
O        O      0.791175000000     0.068800000000     0.575175000000     0          
O        O      0.750000000000     0.054550000000     0.500000000000     0          
O        O      0.819600000000     0.134600000000     0.566025000000     0          
O        O      0.812500000000     0.125000000000     0.625000000000     0          
O        O      0.875000000000     0.088850000000     0.625000000000     0          
O        O      0.875000000000     0.087450000000     0.500000000000     0          
O        O      0.937500000000     0.125000000000     0.500000000000     0          
T        Si     0.751225000000     0.045000000000     0.538525000000     0          
T        Si     0.824400000000     0.104350000000     0.597475000000     0          
T        Si     0.927675000000     0.096250000000     0.524425000000     0          
O        O      0.795400000000     0.057050000000     0.718400000000     0          
O        O      0.990250000000     0.000000000000     0.701975000000     0          
O        O      0.958825000000     0.068800000000     0.674825000000     0          
O        O      0.930400000000     0.134600000000     0.683975000000     0          
O        O      0.937500000000     0.125000000000     0.625000000000     0          
O        O      0.812500000000     0.125000000000     0.500000000000     0          
T        Si     0.998775000000     0.045000000000     0.711475000000     0          
T        Si     0.925600000000     0.104350000000     0.652525000000     0          
T        Si     0.822325000000     0.096250000000     0.725575000000     0          
O        O      0.795400000000     0.442950000000     0.718400000000     0          
O        O      0.958825000000     0.431200000000     0.674825000000     0          
O        O      0.750000000000     0.445450000000     0.500000000000     0          
O        O      0.930400000000     0.365400000000     0.683975000000     0          
O        O      0.937500000000     0.375000000000     0.625000000000     0          
O        O      0.875000000000     0.411150000000     0.625000000000     0          
O        O      0.875000000000     0.412550000000     0.500000000000     0          
O        O      0.812500000000     0.375000000000     0.500000000000     0          
T        Si     0.998775000000     0.455000000000     0.711475000000     0          
T        Si     0.925600000000     0.395650000000     0.652525000000     0          
T        Si     0.822325000000     0.403750000000     0.725575000000     0          
O        O      0.954600000000     0.442950000000     0.531600000000     0          
O        O      0.791175000000     0.431200000000     0.575175000000     0          
O        O      0.819600000000     0.365400000000     0.566025000000     0          
O        O      0.812500000000     0.375000000000     0.625000000000     0          
O        O      0.937500000000     0.375000000000     0.500000000000     0          
T        Si     0.751225000000     0.455000000000     0.538525000000     0          
T        Si     0.824400000000     0.395650000000     0.597475000000     0          
T        Si     0.927675000000     0.403750000000     0.524425000000     0          
O        O      0.829600000000     0.307050000000     0.531600000000     0          
O        O      0.884750000000     0.250000000000     0.548025000000     0          
O        O      0.916175000000     0.318800000000     0.575175000000     0          
O        O      0.875000000000     0.304550000000     0.500000000000     0          
O        O      0.944600000000     0.384600000000     0.566025000000     0          
O        O      0.750000000000     0.338850000000     0.625000000000     0          
O        O      0.750000000000     0.337450000000     0.500000000000     0          
T        Si     0.876225000000     0.295000000000     0.538525000000     0          
T        Si     0.949400000000     0.354350000000     0.597475000000     0          
T        Si     0.802675000000     0.346250000000     0.524425000000     0          
O        O      0.920400000000     0.307050000000     0.718400000000     0          
O        O      0.865250000000     0.250000000000     0.701975000000     0          
O        O      0.833825000000     0.318800000000     0.674825000000     0          
O        O      0.805400000000     0.384600000000     0.683975000000     0          
T        Si     0.873775000000     0.295000000000     0.711475000000     0          
T        Si     0.800600000000     0.354350000000     0.652525000000     0          
T        Si     0.947325000000     0.346250000000     0.725575000000     0          
O        O      0.920400000000     0.192950000000     0.718400000000     0          
O        O      0.833825000000     0.181200000000     0.674825000000     0          
O        O      0.875000000000     0.195450000000     0.500000000000     0          
O        O      0.805400000000     0.115400000000     0.683975000000     0          
O        O      0.750000000000     0.161150000000     0.625000000000     0          
O        O      0.750000000000     0.162550000000     0.500000000000     0          
T        Si     0.873775000000     0.205000000000     0.711475000000     0          
T        Si     0.800600000000     0.145650000000     0.652525000000     0          
T        Si     0.947325000000     0.153750000000     0.725575000000     0          
O        O      0.829600000000     0.192950000000     0.531600000000     0          
O        O      0.916175000000     0.181200000000     0.575175000000     0          
O        O      0.944600000000     0.115400000000     0.566025000000     0          
T        Si     0.876225000000     0.205000000000     0.538525000000     0          
T        Si     0.949400000000     0.145650000000     0.597475000000     0          
T        Si     0.802675000000     0.153750000000     0.524425000000     0          
O        O      0.954600000000     0.057050000000     0.781600000000     0          
O        O      0.759750000000     0.000000000000     0.798025000000     0          
O        O      0.791175000000     0.068800000000     0.825175000000     0          
O        O      0.750000000000     0.054550000000     0.750000000000     0          
O        O      0.819600000000     0.134600000000     0.816025000000     0          
O        O      0.812500000000     0.125000000000     0.875000000000     0          
O        O      0.875000000000     0.088850000000     0.875000000000     0          
O        O      0.875000000000     0.087450000000     0.750000000000     0          
O        O      0.937500000000     0.125000000000     0.750000000000     0          
T        Si     0.751225000000     0.045000000000     0.788525000000     0          
T        Si     0.824400000000     0.104350000000     0.847475000000     0          
T        Si     0.927675000000     0.096250000000     0.774425000000     0          
O        O      0.795400000000     0.057050000000     0.968400000000     0          
O        O      0.990250000000     0.000000000000     0.951975000000     0          
O        O      0.958825000000     0.068800000000     0.924825000000     0          
O        O      0.930400000000     0.134600000000     0.933975000000     0          
O        O      0.937500000000     0.125000000000     0.875000000000     0          
O        O      0.812500000000     0.125000000000     0.750000000000     0          
T        Si     0.998775000000     0.045000000000     0.961475000000     0          
T        Si     0.925600000000     0.104350000000     0.902525000000     0          
T        Si     0.822325000000     0.096250000000     0.975575000000     0          
O        O      0.795400000000     0.442950000000     0.968400000000     0          
O        O      0.958825000000     0.431200000000     0.924825000000     0          
O        O      0.750000000000     0.445450000000     0.750000000000     0          
O        O      0.930400000000     0.365400000000     0.933975000000     0          
O        O      0.937500000000     0.375000000000     0.875000000000     0          
O        O      0.875000000000     0.411150000000     0.875000000000     0          
O        O      0.875000000000     0.412550000000     0.750000000000     0          
O        O      0.812500000000     0.375000000000     0.750000000000     0          
T        Si     0.998775000000     0.455000000000     0.961475000000     0          
T        Si     0.925600000000     0.395650000000     0.902525000000     0          
T        Si     0.822325000000     0.403750000000     0.975575000000     0          
O        O      0.954600000000     0.442950000000     0.781600000000     0          
O        O      0.791175000000     0.431200000000     0.825175000000     0          
O        O      0.819600000000     0.365400000000     0.816025000000     0          
O        O      0.812500000000     0.375000000000     0.875000000000     0          
O        O      0.937500000000     0.375000000000     0.750000000000     0          
T        Si     0.751225000000     0.455000000000     0.788525000000     0          
T        Si     0.824400000000     0.395650000000     0.847475000000     0          
T        Si     0.927675000000     0.403750000000     0.774425000000     0          
O        O      0.829600000000     0.307050000000     0.781600000000     0          
O        O      0.884750000000     0.250000000000     0.798025000000     0          
O        O      0.916175000000     0.318800000000     0.825175000000     0          
O        O      0.875000000000     0.304550000000     0.750000000000     0          
O        O      0.944600000000     0.384600000000     0.816025000000     0          
O        O      0.750000000000     0.338850000000     0.875000000000     0          
O        O      0.750000000000     0.337450000000     0.750000000000     0          
T        Si     0.876225000000     0.295000000000     0.788525000000     0          
T        Si     0.949400000000     0.354350000000     0.847475000000     0          
T        Si     0.802675000000     0.346250000000     0.774425000000     0          
O        O      0.920400000000     0.307050000000     0.968400000000     0          
O        O      0.865250000000     0.250000000000     0.951975000000     0          
O        O      0.833825000000     0.318800000000     0.924825000000     0          
O        O      0.805400000000     0.384600000000     0.933975000000     0          
T        Si     0.873775000000     0.295000000000     0.961475000000     0          
T        Si     0.800600000000     0.354350000000     0.902525000000     0          
T        Si     0.947325000000     0.346250000000     0.975575000000     0          
O        O      0.920400000000     0.192950000000     0.968400000000     0          
O        O      0.833825000000     0.181200000000     0.924825000000     0          
O        O      0.875000000000     0.195450000000     0.750000000000     0          
O        O      0.805400000000     0.115400000000     0.933975000000     0          
O        O      0.750000000000     0.161150000000     0.875000000000     0          
O        O      0.750000000000     0.162550000000     0.750000000000     0          
T        Si     0.873775000000     0.205000000000     0.961475000000     0          
T        Si     0.800600000000     0.145650000000     0.902525000000     0          
T        Si     0.947325000000     0.153750000000     0.975575000000     0          
O        O      0.829600000000     0.192950000000     0.781600000000     0          
O        O      0.916175000000     0.181200000000     0.825175000000     0          
O        O      0.944600000000     0.115400000000     0.816025000000     0          
T        Si     0.876225000000     0.205000000000     0.788525000000     0          
T        Si     0.949400000000     0.145650000000     0.847475000000     0          
T        Si     0.802675000000     0.153750000000     0.774425000000     0          
O        O      0.954600000000     0.557050000000     0.031600000000     0          
O        O      0.759750000000     0.500000000000     0.048025000000     0          
O        O      0.791175000000     0.568800000000     0.075175000000     0          
O        O      0.750000000000     0.554550000000     0.000000000000     0          
O        O      0.819600000000     0.634600000000     0.066025000000     0          
O        O      0.812500000000     0.625000000000     0.125000000000     0          
O        O      0.875000000000     0.588850000000     0.125000000000     0          
O        O      0.875000000000     0.587450000000     0.000000000000     0          
O        O      0.937500000000     0.625000000000     0.000000000000     0          
T        Si     0.751225000000     0.545000000000     0.038525000000     0          
T        Si     0.824400000000     0.604350000000     0.097475000000     0          
T        Si     0.927675000000     0.596250000000     0.024425000000     0          
O        O      0.795400000000     0.557050000000     0.218400000000     0          
O        O      0.990250000000     0.500000000000     0.201975000000     0          
O        O      0.958825000000     0.568800000000     0.174825000000     0          
O        O      0.930400000000     0.634600000000     0.183975000000     0          
O        O      0.937500000000     0.625000000000     0.125000000000     0          
O        O      0.812500000000     0.625000000000     0.000000000000     0          
T        Si     0.998775000000     0.545000000000     0.211475000000     0          
T        Si     0.925600000000     0.604350000000     0.152525000000     0          
T        Si     0.822325000000     0.596250000000     0.225575000000     0          
O        O      0.795400000000     0.942950000000     0.218400000000     0          
O        O      0.958825000000     0.931200000000     0.174825000000     0          
O        O      0.750000000000     0.945450000000     0.000000000000     0          
O        O      0.930400000000     0.865400000000     0.183975000000     0          
O        O      0.937500000000     0.875000000000     0.125000000000     0          
O        O      0.875000000000     0.911150000000     0.125000000000     0          
O        O      0.875000000000     0.912550000000     0.000000000000     0          
O        O      0.812500000000     0.875000000000     0.000000000000     0          
T        Si     0.998775000000     0.955000000000     0.211475000000     0          
T        Si     0.925600000000     0.895650000000     0.152525000000     0          
T        Si     0.822325000000     0.903750000000     0.225575000000     0          
O        O      0.954600000000     0.942950000000     0.031600000000     0          
O        O      0.791175000000     0.931200000000     0.075175000000     0          
O        O      0.819600000000     0.865400000000     0.066025000000     0          
O        O      0.812500000000     0.875000000000     0.125000000000     0          
O        O      0.937500000000     0.875000000000     0.000000000000     0          
T        Si     0.751225000000     0.955000000000     0.038525000000     0          
T        Si     0.824400000000     0.895650000000     0.097475000000     0          
T        Si     0.927675000000     0.903750000000     0.024425000000     0          
O        O      0.829600000000     0.807050000000     0.031600000000     0          
O        O      0.884750000000     0.750000000000     0.048025000000     0          
O        O      0.916175000000     0.818800000000     0.075175000000     0          
O        O      0.875000000000     0.804550000000     0.000000000000     0          
O        O      0.944600000000     0.884600000000     0.066025000000     0          
O        O      0.750000000000     0.838850000000     0.125000000000     0          
O        O      0.750000000000     0.837450000000     0.000000000000     0          
T        Si     0.876225000000     0.795000000000     0.038525000000     0          
T        Si     0.949400000000     0.854350000000     0.097475000000     0          
T        Si     0.802675000000     0.846250000000     0.024425000000     0          
O        O      0.920400000000     0.807050000000     0.218400000000     0          
O        O      0.865250000000     0.750000000000     0.201975000000     0          
O        O      0.833825000000     0.818800000000     0.174825000000     0          
O        O      0.805400000000     0.884600000000     0.183975000000     0          
T        Si     0.873775000000     0.795000000000     0.211475000000     0          
T        Si     0.800600000000     0.854350000000     0.152525000000     0          
T        Si     0.947325000000     0.846250000000     0.225575000000     0          
O        O      0.920400000000     0.692950000000     0.218400000000     0          
O        O      0.833825000000     0.681200000000     0.174825000000     0          
O        O      0.875000000000     0.695450000000     0.000000000000     0          
O        O      0.805400000000     0.615400000000     0.183975000000     0          
O        O      0.750000000000     0.661150000000     0.125000000000     0          
O        O      0.750000000000     0.662550000000     0.000000000000     0          
T        Si     0.873775000000     0.705000000000     0.211475000000     0          
T        Si     0.800600000000     0.645650000000     0.152525000000     0          
T        Si     0.947325000000     0.653750000000     0.225575000000     0          
O        O      0.829600000000     0.692950000000     0.031600000000     0          
O        O      0.916175000000     0.681200000000     0.075175000000     0          
O        O      0.944600000000     0.615400000000     0.066025000000     0          
T        Si     0.876225000000     0.705000000000     0.038525000000     0          
T        Si     0.949400000000     0.645650000000     0.097475000000     0          
T        Si     0.802675000000     0.653750000000     0.024425000000     0          
O        O      0.954600000000     0.557050000000     0.281600000000     0          
O        O      0.759750000000     0.500000000000     0.298025000000     0          
O        O      0.791175000000     0.568800000000     0.325175000000     0          
O        O      0.750000000000     0.554550000000     0.250000000000     0          
O        O      0.819600000000     0.634600000000     0.316025000000     0          
O        O      0.812500000000     0.625000000000     0.375000000000     0          
O        O      0.875000000000     0.588850000000     0.375000000000     0          
O        O      0.875000000000     0.587450000000     0.250000000000     0          
O        O      0.937500000000     0.625000000000     0.250000000000     0          
T        Si     0.751225000000     0.545000000000     0.288525000000     0          
T        Si     0.824400000000     0.604350000000     0.347475000000     0          
T        Si     0.927675000000     0.596250000000     0.274425000000     0          
O        O      0.795400000000     0.557050000000     0.468400000000     0          
O        O      0.990250000000     0.500000000000     0.451975000000     0          
O        O      0.958825000000     0.568800000000     0.424825000000     0          
O        O      0.930400000000     0.634600000000     0.433975000000     0          
O        O      0.937500000000     0.625000000000     0.375000000000     0          
O        O      0.812500000000     0.625000000000     0.250000000000     0          
T        Si     0.998775000000     0.545000000000     0.461475000000     0          
T        Si     0.925600000000     0.604350000000     0.402525000000     0          
T        Si     0.822325000000     0.596250000000     0.475575000000     0          
O        O      0.795400000000     0.942950000000     0.468400000000     0          
O        O      0.958825000000     0.931200000000     0.424825000000     0          
O        O      0.750000000000     0.945450000000     0.250000000000     0          
O        O      0.930400000000     0.865400000000     0.433975000000     0          
O        O      0.937500000000     0.875000000000     0.375000000000     0          
O        O      0.875000000000     0.911150000000     0.375000000000     0          
O        O      0.875000000000     0.912550000000     0.250000000000     0          
O        O      0.812500000000     0.875000000000     0.250000000000     0          
T        Si     0.998775000000     0.955000000000     0.461475000000     0          
T        Si     0.925600000000     0.895650000000     0.402525000000     0          
T        Si     0.822325000000     0.903750000000     0.475575000000     0          
O        O      0.954600000000     0.942950000000     0.281600000000     0          
O        O      0.791175000000     0.931200000000     0.325175000000     0          
O        O      0.819600000000     0.865400000000     0.316025000000     0          
O        O      0.812500000000     0.875000000000     0.375000000000     0          
O        O      0.937500000000     0.875000000000     0.250000000000     0          
T        Si     0.751225000000     0.955000000000     0.288525000000     0          
T        Si     0.824400000000     0.895650000000     0.347475000000     0          
T        Si     0.927675000000     0.903750000000     0.274425000000     0          
O        O      0.829600000000     0.807050000000     0.281600000000     0          
O        O      0.884750000000     0.750000000000     0.298025000000     0          
O        O      0.916175000000     0.818800000000     0.325175000000     0          
O        O      0.875000000000     0.804550000000     0.250000000000     0          
O        O      0.944600000000     0.884600000000     0.316025000000     0          
O        O      0.750000000000     0.838850000000     0.375000000000     0          
O        O      0.750000000000     0.837450000000     0.250000000000     0          
T        Si     0.876225000000     0.795000000000     0.288525000000     0          
T        Si     0.949400000000     0.854350000000     0.347475000000     0          
T        Si     0.802675000000     0.846250000000     0.274425000000     0          
O        O      0.920400000000     0.807050000000     0.468400000000     0          
O        O      0.865250000000     0.750000000000     0.451975000000     0          
O        O      0.833825000000     0.818800000000     0.424825000000     0          
O        O      0.805400000000     0.884600000000     0.433975000000     0          
T        Si     0.873775000000     0.795000000000     0.461475000000     0          
T        Si     0.800600000000     0.854350000000     0.402525000000     0          
T        Si     0.947325000000     0.846250000000     0.475575000000     0          
O        O      0.920400000000     0.692950000000     0.468400000000     0          
O        O      0.833825000000     0.681200000000     0.424825000000     0          
O        O      0.875000000000     0.695450000000     0.250000000000     0          
O        O      0.805400000000     0.615400000000     0.433975000000     0          
O        O      0.750000000000     0.661150000000     0.375000000000     0          
O        O      0.750000000000     0.662550000000     0.250000000000     0          
T        Si     0.873775000000     0.705000000000     0.461475000000     0          
T        Si     0.800600000000     0.645650000000     0.402525000000     0          
T        Si     0.947325000000     0.653750000000     0.475575000000     0          
O        O      0.829600000000     0.692950000000     0.281600000000     0          
O        O      0.916175000000     0.681200000000     0.325175000000     0          
O        O      0.944600000000     0.615400000000     0.316025000000     0          
T        Si     0.876225000000     0.705000000000     0.288525000000     0          
T        Si     0.949400000000     0.645650000000     0.347475000000     0          
T        Si     0.802675000000     0.653750000000     0.274425000000     0          
O        O      0.954600000000     0.557050000000     0.531600000000     0          
O        O      0.759750000000     0.500000000000     0.548025000000     0          
O        O      0.791175000000     0.568800000000     0.575175000000     0          
O        O      0.750000000000     0.554550000000     0.500000000000     0          
O        O      0.819600000000     0.634600000000     0.566025000000     0          
O        O      0.812500000000     0.625000000000     0.625000000000     0          
O        O      0.875000000000     0.588850000000     0.625000000000     0          
O        O      0.875000000000     0.587450000000     0.500000000000     0          
O        O      0.937500000000     0.625000000000     0.500000000000     0          
T        Si     0.751225000000     0.545000000000     0.538525000000     0          
T        Si     0.824400000000     0.604350000000     0.597475000000     0          
T        Si     0.927675000000     0.596250000000     0.524425000000     0          
O        O      0.795400000000     0.557050000000     0.718400000000     0          
O        O      0.990250000000     0.500000000000     0.701975000000     0          
O        O      0.958825000000     0.568800000000     0.674825000000     0          
O        O      0.930400000000     0.634600000000     0.683975000000     0          
O        O      0.937500000000     0.625000000000     0.625000000000     0          
O        O      0.812500000000     0.625000000000     0.500000000000     0          
T        Si     0.998775000000     0.545000000000     0.711475000000     0          
T        Si     0.925600000000     0.604350000000     0.652525000000     0          
T        Si     0.822325000000     0.596250000000     0.725575000000     0          
O        O      0.795400000000     0.942950000000     0.718400000000     0          
O        O      0.958825000000     0.931200000000     0.674825000000     0          
O        O      0.750000000000     0.945450000000     0.500000000000     0          
O        O      0.930400000000     0.865400000000     0.683975000000     0          
O        O      0.937500000000     0.875000000000     0.625000000000     0          
O        O      0.875000000000     0.911150000000     0.625000000000     0          
O        O      0.875000000000     0.912550000000     0.500000000000     0          
O        O      0.812500000000     0.875000000000     0.500000000000     0          
T        Si     0.998775000000     0.955000000000     0.711475000000     0          
T        Si     0.925600000000     0.895650000000     0.652525000000     0          
T        Si     0.822325000000     0.903750000000     0.725575000000     0          
O        O      0.954600000000     0.942950000000     0.531600000000     0          
O        O      0.791175000000     0.931200000000     0.575175000000     0          
O        O      0.819600000000     0.865400000000     0.566025000000     0          
O        O      0.812500000000     0.875000000000     0.625000000000     0          
O        O      0.937500000000     0.875000000000     0.500000000000     0          
T        Si     0.751225000000     0.955000000000     0.538525000000     0          
T        Si     0.824400000000     0.895650000000     0.597475000000     0          
T        Si     0.927675000000     0.903750000000     0.524425000000     0          
O        O      0.829600000000     0.807050000000     0.531600000000     0          
O        O      0.884750000000     0.750000000000     0.548025000000     0          
O        O      0.916175000000     0.818800000000     0.575175000000     0          
O        O      0.875000000000     0.804550000000     0.500000000000     0          
O        O      0.944600000000     0.884600000000     0.566025000000     0          
O        O      0.750000000000     0.838850000000     0.625000000000     0          
O        O      0.750000000000     0.837450000000     0.500000000000     0          
T        Si     0.876225000000     0.795000000000     0.538525000000     0          
T        Si     0.949400000000     0.854350000000     0.597475000000     0          
T        Si     0.802675000000     0.846250000000     0.524425000000     0          
O        O      0.920400000000     0.807050000000     0.718400000000     0          
O        O      0.865250000000     0.750000000000     0.701975000000     0          
O        O      0.833825000000     0.818800000000     0.674825000000     0          
O        O      0.805400000000     0.884600000000     0.683975000000     0          
T        Si     0.873775000000     0.795000000000     0.711475000000     0          
T        Si     0.800600000000     0.854350000000     0.652525000000     0          
T        Si     0.947325000000     0.846250000000     0.725575000000     0          
O        O      0.920400000000     0.692950000000     0.718400000000     0          
O        O      0.833825000000     0.681200000000     0.674825000000     0          
O        O      0.875000000000     0.695450000000     0.500000000000     0          
O        O      0.805400000000     0.615400000000     0.683975000000     0          
O        O      0.750000000000     0.661150000000     0.625000000000     0          
O        O      0.750000000000     0.662550000000     0.500000000000     0          
T        Si     0.873775000000     0.705000000000     0.711475000000     0          
T        Si     0.800600000000     0.645650000000     0.652525000000     0          
T        Si     0.947325000000     0.653750000000     0.725575000000     0          
O        O      0.829600000000     0.692950000000     0.531600000000     0          
O        O      0.916175000000     0.681200000000     0.575175000000     0          
O        O      0.944600000000     0.615400000000     0.566025000000     0          
T        Si     0.876225000000     0.705000000000     0.538525000000     0          
T        Si     0.949400000000     0.645650000000     0.597475000000     0          
T        Si     0.802675000000     0.653750000000     0.524425000000     0          
O        O      0.954600000000     0.557050000000     0.781600000000     0          
O        O      0.759750000000     0.500000000000     0.798025000000     0          
O        O      0.791175000000     0.568800000000     0.825175000000     0          
O        O      0.750000000000     0.554550000000     0.750000000000     0          
O        O      0.819600000000     0.634600000000     0.816025000000     0          
O        O      0.812500000000     0.625000000000     0.875000000000     0          
O        O      0.875000000000     0.588850000000     0.875000000000     0          
O        O      0.875000000000     0.587450000000     0.750000000000     0          
O        O      0.937500000000     0.625000000000     0.750000000000     0          
T        Si     0.751225000000     0.545000000000     0.788525000000     0          
T        Si     0.824400000000     0.604350000000     0.847475000000     0          
T        Si     0.927675000000     0.596250000000     0.774425000000     0          
O        O      0.795400000000     0.557050000000     0.968400000000     0          
O        O      0.990250000000     0.500000000000     0.951975000000     0          
O        O      0.958825000000     0.568800000000     0.924825000000     0          
O        O      0.930400000000     0.634600000000     0.933975000000     0          
O        O      0.937500000000     0.625000000000     0.875000000000     0          
O        O      0.812500000000     0.625000000000     0.750000000000     0          
T        Si     0.998775000000     0.545000000000     0.961475000000     0          
T        Si     0.925600000000     0.604350000000     0.902525000000     0          
T        Si     0.822325000000     0.596250000000     0.975575000000     0          
O        O      0.795400000000     0.942950000000     0.968400000000     0          
O        O      0.958825000000     0.931200000000     0.924825000000     0          
O        O      0.750000000000     0.945450000000     0.750000000000     0          
O        O      0.930400000000     0.865400000000     0.933975000000     0          
O        O      0.937500000000     0.875000000000     0.875000000000     0          
O        O      0.875000000000     0.911150000000     0.875000000000     0          
O        O      0.875000000000     0.912550000000     0.750000000000     0          
O        O      0.812500000000     0.875000000000     0.750000000000     0          
T        Si     0.998775000000     0.955000000000     0.961475000000     0          
T        Si     0.925600000000     0.895650000000     0.902525000000     0          
T        Si     0.822325000000     0.903750000000     0.975575000000     0          
O        O      0.954600000000     0.942950000000     0.781600000000     0          
O        O      0.791175000000     0.931200000000     0.825175000000     0          
O        O      0.819600000000     0.865400000000     0.816025000000     0          
O        O      0.812500000000     0.875000000000     0.875000000000     0          
O        O      0.937500000000     0.875000000000     0.750000000000     0          
T        Si     0.751225000000     0.955000000000     0.788525000000     0          
T        Si     0.824400000000     0.895650000000     0.847475000000     0          
T        Si     0.927675000000     0.903750000000     0.774425000000     0          
O        O      0.829600000000     0.807050000000     0.781600000000     0          
O        O      0.884750000000     0.750000000000     0.798025000000     0          
O        O      0.916175000000     0.818800000000     0.825175000000     0          
O        O      0.875000000000     0.804550000000     0.750000000000     0          
O        O      0.944600000000     0.884600000000     0.816025000000     0          
O        O      0.750000000000     0.838850000000     0.875000000000     0          
O        O      0.750000000000     0.837450000000     0.750000000000     0          
T        Si     0.876225000000     0.795000000000     0.788525000000     0          
T        Si     0.949400000000     0.854350000000     0.847475000000     0          
T        Si     0.802675000000     0.846250000000     0.774425000000     0          
O        O      0.920400000000     0.807050000000     0.968400000000     0          
O        O      0.865250000000     0.750000000000     0.951975000000     0          
O        O      0.833825000000     0.818800000000     0.924825000000     0          
O        O      0.805400000000     0.884600000000     0.933975000000     0          
T        Si     0.873775000000     0.795000000000     0.961475000000     0          
T        Si     0.800600000000     0.854350000000     0.902525000000     0          
T        Si     0.947325000000     0.846250000000     0.975575000000     0          
O        O      0.920400000000     0.692950000000     0.968400000000     0          
O        O      0.833825000000     0.681200000000     0.924825000000     0          
O        O      0.875000000000     0.695450000000     0.750000000000     0          
O        O      0.805400000000     0.615400000000     0.933975000000     0          
O        O      0.750000000000     0.661150000000     0.875000000000     0          
O        O      0.750000000000     0.662550000000     0.750000000000     0          
T        Si     0.873775000000     0.705000000000     0.961475000000     0          
T        Si     0.800600000000     0.645650000000     0.902525000000     0          
T        Si     0.947325000000     0.653750000000     0.975575000000     0          
O        O      0.829600000000     0.692950000000     0.781600000000     0          
O        O      0.916175000000     0.681200000000     0.825175000000     0          
O        O      0.944600000000     0.615400000000     0.816025000000     0          
T        Si     0.876225000000     0.705000000000     0.788525000000     0          
T        Si     0.949400000000     0.645650000000     0.847475000000     0          
T        Si     0.802675000000     0.653750000000     0.774425000000     0          


