data_zeolite

_audit_creation_method RASPA-1.0
_audit_creation_date 2021-6-6
_audit_author_name ''

_cell_length_a    30.126
_cell_length_b    32.604
_cell_length_c    27.954
_cell_angle_alpha 90
_cell_angle_beta  90
_cell_angle_gamma 90
_cell_volume      27457.2

_symmetry_cell_setting          orthorhombic
_symmetry_space_group_name_Hall 'P 1'
_symmetry_space_group_name_H-M  'P 1'
_symmetry_Int_Tables_number     1

_symmetry_equiv_pos_as_xyz 'x,y,z'

loop_
_atom_site_label
_atom_site_type_symbol
_atom_site_fract_x
_atom_site_fract_y
_atom_site_fract_z
_atom_site_charge
O        O      0.022833333333     0.074950000000     0.135650000000     0          
O        O      0.046283333333     0.066900000000     0.047600000000     0          
O        O      0.083333333333     0.125000000000     0.099050000000     0          
O        O      0.000000000000     0.000000000000     0.250000000000     0          
O        O      0.083333333333     0.000000000000     0.250000000000     0          
T        Si     0.064700000000     0.078775000000     0.100000000000     0          
T        Si     0.041683333333     0.219300000000     0.250000000000     0          
O        O      0.143833333333     0.175050000000     0.135650000000     0          
O        O      0.120383333333     0.183100000000     0.047600000000     0          
T        Si     0.101966666667     0.171225000000     0.100000000000     0          
T        Si     0.124983333333     0.030700000000     0.250000000000     0          
O        O      0.106166666667     0.050050000000     0.114350000000     0          
O        O      0.129616666667     0.058100000000     0.202400000000     0          
O        O      0.000000000000     0.000000000000     0.150950000000     0          
O        O      0.083333333333     0.125000000000     0.000000000000     0          
O        O      0.000000000000     0.125000000000     0.000000000000     0          
T        Si     0.148033333333     0.046225000000     0.150000000000     0          
T        Si     0.125016666667     0.155700000000     0.000000000000     0          
O        O      0.060500000000     0.199950000000     0.114350000000     0          
O        O      0.037050000000     0.191900000000     0.202400000000     0          
T        Si     0.018633333333     0.203775000000     0.150000000000     0          
T        Si     0.041650000000     0.094300000000     0.000000000000     0          
O        O      0.143833333333     0.175050000000     0.364350000000     0          
O        O      0.120383333333     0.183100000000     0.452400000000     0          
O        O      0.083333333333     0.125000000000     0.400950000000     0          
T        Si     0.101966666667     0.171225000000     0.400000000000     0          
O        O      0.022833333333     0.074950000000     0.364350000000     0          
O        O      0.046283333333     0.066900000000     0.452400000000     0          
T        Si     0.064700000000     0.078775000000     0.400000000000     0          
O        O      0.060500000000     0.199950000000     0.385650000000     0          
O        O      0.037050000000     0.191900000000     0.297600000000     0          
O        O      0.000000000000     0.000000000000     0.349050000000     0          
T        Si     0.018633333333     0.203775000000     0.350000000000     0          
O        O      0.106166666667     0.050050000000     0.385650000000     0          
O        O      0.129616666667     0.058100000000     0.297600000000     0          
T        Si     0.148033333333     0.046225000000     0.350000000000     0          
O        O      0.022833333333     0.074950000000     0.635650000000     0          
O        O      0.046283333333     0.066900000000     0.547600000000     0          
O        O      0.083333333333     0.125000000000     0.599050000000     0          
O        O      0.000000000000     0.000000000000     0.750000000000     0          
O        O      0.083333333333     0.000000000000     0.750000000000     0          
T        Si     0.064700000000     0.078775000000     0.600000000000     0          
T        Si     0.041683333333     0.219300000000     0.750000000000     0          
O        O      0.143833333333     0.175050000000     0.635650000000     0          
O        O      0.120383333333     0.183100000000     0.547600000000     0          
T        Si     0.101966666667     0.171225000000     0.600000000000     0          
T        Si     0.124983333333     0.030700000000     0.750000000000     0          
O        O      0.106166666667     0.050050000000     0.614350000000     0          
O        O      0.129616666667     0.058100000000     0.702400000000     0          
O        O      0.000000000000     0.000000000000     0.650950000000     0          
O        O      0.083333333333     0.125000000000     0.500000000000     0          
O        O      0.000000000000     0.125000000000     0.500000000000     0          
T        Si     0.148033333333     0.046225000000     0.650000000000     0          
T        Si     0.125016666667     0.155700000000     0.500000000000     0          
O        O      0.060500000000     0.199950000000     0.614350000000     0          
O        O      0.037050000000     0.191900000000     0.702400000000     0          
T        Si     0.018633333333     0.203775000000     0.650000000000     0          
T        Si     0.041650000000     0.094300000000     0.500000000000     0          
O        O      0.143833333333     0.175050000000     0.864350000000     0          
O        O      0.120383333333     0.183100000000     0.952400000000     0          
O        O      0.083333333333     0.125000000000     0.900950000000     0          
T        Si     0.101966666667     0.171225000000     0.900000000000     0          
O        O      0.022833333333     0.074950000000     0.864350000000     0          
O        O      0.046283333333     0.066900000000     0.952400000000     0          
T        Si     0.064700000000     0.078775000000     0.900000000000     0          
O        O      0.060500000000     0.199950000000     0.885650000000     0          
O        O      0.037050000000     0.191900000000     0.797600000000     0          
O        O      0.000000000000     0.000000000000     0.849050000000     0          
T        Si     0.018633333333     0.203775000000     0.850000000000     0          
O        O      0.106166666667     0.050050000000     0.885650000000     0          
O        O      0.129616666667     0.058100000000     0.797600000000     0          
T        Si     0.148033333333     0.046225000000     0.850000000000     0          
O        O      0.022833333333     0.324950000000     0.135650000000     0          
O        O      0.046283333333     0.316900000000     0.047600000000     0          
O        O      0.083333333333     0.375000000000     0.099050000000     0          
O        O      0.000000000000     0.250000000000     0.250000000000     0          
O        O      0.083333333333     0.250000000000     0.250000000000     0          
T        Si     0.064700000000     0.328775000000     0.100000000000     0          
T        Si     0.041683333333     0.469300000000     0.250000000000     0          
O        O      0.143833333333     0.425050000000     0.135650000000     0          
O        O      0.120383333333     0.433100000000     0.047600000000     0          
T        Si     0.101966666667     0.421225000000     0.100000000000     0          
T        Si     0.124983333333     0.280700000000     0.250000000000     0          
O        O      0.106166666667     0.300050000000     0.114350000000     0          
O        O      0.129616666667     0.308100000000     0.202400000000     0          
O        O      0.000000000000     0.250000000000     0.150950000000     0          
O        O      0.083333333333     0.375000000000     0.000000000000     0          
O        O      0.000000000000     0.375000000000     0.000000000000     0          
T        Si     0.148033333333     0.296225000000     0.150000000000     0          
T        Si     0.125016666667     0.405700000000     0.000000000000     0          
O        O      0.060500000000     0.449950000000     0.114350000000     0          
O        O      0.037050000000     0.441900000000     0.202400000000     0          
T        Si     0.018633333333     0.453775000000     0.150000000000     0          
T        Si     0.041650000000     0.344300000000     0.000000000000     0          
O        O      0.143833333333     0.425050000000     0.364350000000     0          
O        O      0.120383333333     0.433100000000     0.452400000000     0          
O        O      0.083333333333     0.375000000000     0.400950000000     0          
T        Si     0.101966666667     0.421225000000     0.400000000000     0          
O        O      0.022833333333     0.324950000000     0.364350000000     0          
O        O      0.046283333333     0.316900000000     0.452400000000     0          
T        Si     0.064700000000     0.328775000000     0.400000000000     0          
O        O      0.060500000000     0.449950000000     0.385650000000     0          
O        O      0.037050000000     0.441900000000     0.297600000000     0          
O        O      0.000000000000     0.250000000000     0.349050000000     0          
T        Si     0.018633333333     0.453775000000     0.350000000000     0          
O        O      0.106166666667     0.300050000000     0.385650000000     0          
O        O      0.129616666667     0.308100000000     0.297600000000     0          
T        Si     0.148033333333     0.296225000000     0.350000000000     0          
O        O      0.022833333333     0.324950000000     0.635650000000     0          
O        O      0.046283333333     0.316900000000     0.547600000000     0          
O        O      0.083333333333     0.375000000000     0.599050000000     0          
O        O      0.000000000000     0.250000000000     0.750000000000     0          
O        O      0.083333333333     0.250000000000     0.750000000000     0          
T        Si     0.064700000000     0.328775000000     0.600000000000     0          
T        Si     0.041683333333     0.469300000000     0.750000000000     0          
O        O      0.143833333333     0.425050000000     0.635650000000     0          
O        O      0.120383333333     0.433100000000     0.547600000000     0          
T        Si     0.101966666667     0.421225000000     0.600000000000     0          
T        Si     0.124983333333     0.280700000000     0.750000000000     0          
O        O      0.106166666667     0.300050000000     0.614350000000     0          
O        O      0.129616666667     0.308100000000     0.702400000000     0          
O        O      0.000000000000     0.250000000000     0.650950000000     0          
O        O      0.083333333333     0.375000000000     0.500000000000     0          
O        O      0.000000000000     0.375000000000     0.500000000000     0          
T        Si     0.148033333333     0.296225000000     0.650000000000     0          
T        Si     0.125016666667     0.405700000000     0.500000000000     0          
O        O      0.060500000000     0.449950000000     0.614350000000     0          
O        O      0.037050000000     0.441900000000     0.702400000000     0          
T        Si     0.018633333333     0.453775000000     0.650000000000     0          
T        Si     0.041650000000     0.344300000000     0.500000000000     0          
O        O      0.143833333333     0.425050000000     0.864350000000     0          
O        O      0.120383333333     0.433100000000     0.952400000000     0          
O        O      0.083333333333     0.375000000000     0.900950000000     0          
T        Si     0.101966666667     0.421225000000     0.900000000000     0          
O        O      0.022833333333     0.324950000000     0.864350000000     0          
O        O      0.046283333333     0.316900000000     0.952400000000     0          
T        Si     0.064700000000     0.328775000000     0.900000000000     0          
O        O      0.060500000000     0.449950000000     0.885650000000     0          
O        O      0.037050000000     0.441900000000     0.797600000000     0          
O        O      0.000000000000     0.250000000000     0.849050000000     0          
T        Si     0.018633333333     0.453775000000     0.850000000000     0          
O        O      0.106166666667     0.300050000000     0.885650000000     0          
O        O      0.129616666667     0.308100000000     0.797600000000     0          
T        Si     0.148033333333     0.296225000000     0.850000000000     0          
O        O      0.022833333333     0.574950000000     0.135650000000     0          
O        O      0.046283333333     0.566900000000     0.047600000000     0          
O        O      0.083333333333     0.625000000000     0.099050000000     0          
O        O      0.000000000000     0.500000000000     0.250000000000     0          
O        O      0.083333333333     0.500000000000     0.250000000000     0          
T        Si     0.064700000000     0.578775000000     0.100000000000     0          
T        Si     0.041683333333     0.719300000000     0.250000000000     0          
O        O      0.143833333333     0.675050000000     0.135650000000     0          
O        O      0.120383333333     0.683100000000     0.047600000000     0          
T        Si     0.101966666667     0.671225000000     0.100000000000     0          
T        Si     0.124983333333     0.530700000000     0.250000000000     0          
O        O      0.106166666667     0.550050000000     0.114350000000     0          
O        O      0.129616666667     0.558100000000     0.202400000000     0          
O        O      0.000000000000     0.500000000000     0.150950000000     0          
O        O      0.083333333333     0.625000000000     0.000000000000     0          
O        O      0.000000000000     0.625000000000     0.000000000000     0          
T        Si     0.148033333333     0.546225000000     0.150000000000     0          
T        Si     0.125016666667     0.655700000000     0.000000000000     0          
O        O      0.060500000000     0.699950000000     0.114350000000     0          
O        O      0.037050000000     0.691900000000     0.202400000000     0          
T        Si     0.018633333333     0.703775000000     0.150000000000     0          
T        Si     0.041650000000     0.594300000000     0.000000000000     0          
O        O      0.143833333333     0.675050000000     0.364350000000     0          
O        O      0.120383333333     0.683100000000     0.452400000000     0          
O        O      0.083333333333     0.625000000000     0.400950000000     0          
T        Si     0.101966666667     0.671225000000     0.400000000000     0          
O        O      0.022833333333     0.574950000000     0.364350000000     0          
O        O      0.046283333333     0.566900000000     0.452400000000     0          
T        Si     0.064700000000     0.578775000000     0.400000000000     0          
O        O      0.060500000000     0.699950000000     0.385650000000     0          
O        O      0.037050000000     0.691900000000     0.297600000000     0          
O        O      0.000000000000     0.500000000000     0.349050000000     0          
T        Si     0.018633333333     0.703775000000     0.350000000000     0          
O        O      0.106166666667     0.550050000000     0.385650000000     0          
O        O      0.129616666667     0.558100000000     0.297600000000     0          
T        Si     0.148033333333     0.546225000000     0.350000000000     0          
O        O      0.022833333333     0.574950000000     0.635650000000     0          
O        O      0.046283333333     0.566900000000     0.547600000000     0          
O        O      0.083333333333     0.625000000000     0.599050000000     0          
O        O      0.000000000000     0.500000000000     0.750000000000     0          
O        O      0.083333333333     0.500000000000     0.750000000000     0          
T        Si     0.064700000000     0.578775000000     0.600000000000     0          
T        Si     0.041683333333     0.719300000000     0.750000000000     0          
O        O      0.143833333333     0.675050000000     0.635650000000     0          
O        O      0.120383333333     0.683100000000     0.547600000000     0          
T        Si     0.101966666667     0.671225000000     0.600000000000     0          
T        Si     0.124983333333     0.530700000000     0.750000000000     0          
O        O      0.106166666667     0.550050000000     0.614350000000     0          
O        O      0.129616666667     0.558100000000     0.702400000000     0          
O        O      0.000000000000     0.500000000000     0.650950000000     0          
O        O      0.083333333333     0.625000000000     0.500000000000     0          
O        O      0.000000000000     0.625000000000     0.500000000000     0          
T        Si     0.148033333333     0.546225000000     0.650000000000     0          
T        Si     0.125016666667     0.655700000000     0.500000000000     0          
O        O      0.060500000000     0.699950000000     0.614350000000     0          
O        O      0.037050000000     0.691900000000     0.702400000000     0          
T        Si     0.018633333333     0.703775000000     0.650000000000     0          
T        Si     0.041650000000     0.594300000000     0.500000000000     0          
O        O      0.143833333333     0.675050000000     0.864350000000     0          
O        O      0.120383333333     0.683100000000     0.952400000000     0          
O        O      0.083333333333     0.625000000000     0.900950000000     0          
T        Si     0.101966666667     0.671225000000     0.900000000000     0          
O        O      0.022833333333     0.574950000000     0.864350000000     0          
O        O      0.046283333333     0.566900000000     0.952400000000     0          
T        Si     0.064700000000     0.578775000000     0.900000000000     0          
O        O      0.060500000000     0.699950000000     0.885650000000     0          
O        O      0.037050000000     0.691900000000     0.797600000000     0          
O        O      0.000000000000     0.500000000000     0.849050000000     0          
T        Si     0.018633333333     0.703775000000     0.850000000000     0          
O        O      0.106166666667     0.550050000000     0.885650000000     0          
O        O      0.129616666667     0.558100000000     0.797600000000     0          
T        Si     0.148033333333     0.546225000000     0.850000000000     0          
O        O      0.022833333333     0.824950000000     0.135650000000     0          
O        O      0.046283333333     0.816900000000     0.047600000000     0          
O        O      0.083333333333     0.875000000000     0.099050000000     0          
O        O      0.000000000000     0.750000000000     0.250000000000     0          
O        O      0.083333333333     0.750000000000     0.250000000000     0          
T        Si     0.064700000000     0.828775000000     0.100000000000     0          
T        Si     0.041683333333     0.969300000000     0.250000000000     0          
O        O      0.143833333333     0.925050000000     0.135650000000     0          
O        O      0.120383333333     0.933100000000     0.047600000000     0          
T        Si     0.101966666667     0.921225000000     0.100000000000     0          
T        Si     0.124983333333     0.780700000000     0.250000000000     0          
O        O      0.106166666667     0.800050000000     0.114350000000     0          
O        O      0.129616666667     0.808100000000     0.202400000000     0          
O        O      0.000000000000     0.750000000000     0.150950000000     0          
O        O      0.083333333333     0.875000000000     0.000000000000     0          
O        O      0.000000000000     0.875000000000     0.000000000000     0          
T        Si     0.148033333333     0.796225000000     0.150000000000     0          
T        Si     0.125016666667     0.905700000000     0.000000000000     0          
O        O      0.060500000000     0.949950000000     0.114350000000     0          
O        O      0.037050000000     0.941900000000     0.202400000000     0          
T        Si     0.018633333333     0.953775000000     0.150000000000     0          
T        Si     0.041650000000     0.844300000000     0.000000000000     0          
O        O      0.143833333333     0.925050000000     0.364350000000     0          
O        O      0.120383333333     0.933100000000     0.452400000000     0          
O        O      0.083333333333     0.875000000000     0.400950000000     0          
T        Si     0.101966666667     0.921225000000     0.400000000000     0          
O        O      0.022833333333     0.824950000000     0.364350000000     0          
O        O      0.046283333333     0.816900000000     0.452400000000     0          
T        Si     0.064700000000     0.828775000000     0.400000000000     0          
O        O      0.060500000000     0.949950000000     0.385650000000     0          
O        O      0.037050000000     0.941900000000     0.297600000000     0          
O        O      0.000000000000     0.750000000000     0.349050000000     0          
T        Si     0.018633333333     0.953775000000     0.350000000000     0          
O        O      0.106166666667     0.800050000000     0.385650000000     0          
O        O      0.129616666667     0.808100000000     0.297600000000     0          
T        Si     0.148033333333     0.796225000000     0.350000000000     0          
O        O      0.022833333333     0.824950000000     0.635650000000     0          
O        O      0.046283333333     0.816900000000     0.547600000000     0          
O        O      0.083333333333     0.875000000000     0.599050000000     0          
O        O      0.000000000000     0.750000000000     0.750000000000     0          
O        O      0.083333333333     0.750000000000     0.750000000000     0          
T        Si     0.064700000000     0.828775000000     0.600000000000     0          
T        Si     0.041683333333     0.969300000000     0.750000000000     0          
O        O      0.143833333333     0.925050000000     0.635650000000     0          
O        O      0.120383333333     0.933100000000     0.547600000000     0          
T        Si     0.101966666667     0.921225000000     0.600000000000     0          
T        Si     0.124983333333     0.780700000000     0.750000000000     0          
O        O      0.106166666667     0.800050000000     0.614350000000     0          
O        O      0.129616666667     0.808100000000     0.702400000000     0          
O        O      0.000000000000     0.750000000000     0.650950000000     0          
O        O      0.083333333333     0.875000000000     0.500000000000     0          
O        O      0.000000000000     0.875000000000     0.500000000000     0          
T        Si     0.148033333333     0.796225000000     0.650000000000     0          
T        Si     0.125016666667     0.905700000000     0.500000000000     0          
O        O      0.060500000000     0.949950000000     0.614350000000     0          
O        O      0.037050000000     0.941900000000     0.702400000000     0          
T        Si     0.018633333333     0.953775000000     0.650000000000     0          
T        Si     0.041650000000     0.844300000000     0.500000000000     0          
O        O      0.143833333333     0.925050000000     0.864350000000     0          
O        O      0.120383333333     0.933100000000     0.952400000000     0          
O        O      0.083333333333     0.875000000000     0.900950000000     0          
T        Si     0.101966666667     0.921225000000     0.900000000000     0          
O        O      0.022833333333     0.824950000000     0.864350000000     0          
O        O      0.046283333333     0.816900000000     0.952400000000     0          
T        Si     0.064700000000     0.828775000000     0.900000000000     0          
O        O      0.060500000000     0.949950000000     0.885650000000     0          
O        O      0.037050000000     0.941900000000     0.797600000000     0          
O        O      0.000000000000     0.750000000000     0.849050000000     0          
T        Si     0.018633333333     0.953775000000     0.850000000000     0          
O        O      0.106166666667     0.800050000000     0.885650000000     0          
O        O      0.129616666667     0.808100000000     0.797600000000     0          
T        Si     0.148033333333     0.796225000000     0.850000000000     0          
O        O      0.189500000000     0.074950000000     0.135650000000     0          
O        O      0.212950000000     0.066900000000     0.047600000000     0          
O        O      0.250000000000     0.125000000000     0.099050000000     0          
O        O      0.166666666667     0.000000000000     0.250000000000     0          
O        O      0.250000000000     0.000000000000     0.250000000000     0          
T        Si     0.231366666667     0.078775000000     0.100000000000     0          
T        Si     0.208350000000     0.219300000000     0.250000000000     0          
O        O      0.310500000000     0.175050000000     0.135650000000     0          
O        O      0.287050000000     0.183100000000     0.047600000000     0          
T        Si     0.268633333333     0.171225000000     0.100000000000     0          
T        Si     0.291650000000     0.030700000000     0.250000000000     0          
O        O      0.272833333333     0.050050000000     0.114350000000     0          
O        O      0.296283333333     0.058100000000     0.202400000000     0          
O        O      0.166666666667     0.000000000000     0.150950000000     0          
O        O      0.250000000000     0.125000000000     0.000000000000     0          
O        O      0.166666666667     0.125000000000     0.000000000000     0          
T        Si     0.314700000000     0.046225000000     0.150000000000     0          
T        Si     0.291683333333     0.155700000000     0.000000000000     0          
O        O      0.227166666667     0.199950000000     0.114350000000     0          
O        O      0.203716666667     0.191900000000     0.202400000000     0          
T        Si     0.185300000000     0.203775000000     0.150000000000     0          
T        Si     0.208316666667     0.094300000000     0.000000000000     0          
O        O      0.310500000000     0.175050000000     0.364350000000     0          
O        O      0.287050000000     0.183100000000     0.452400000000     0          
O        O      0.250000000000     0.125000000000     0.400950000000     0          
T        Si     0.268633333333     0.171225000000     0.400000000000     0          
O        O      0.189500000000     0.074950000000     0.364350000000     0          
O        O      0.212950000000     0.066900000000     0.452400000000     0          
T        Si     0.231366666667     0.078775000000     0.400000000000     0          
O        O      0.227166666667     0.199950000000     0.385650000000     0          
O        O      0.203716666667     0.191900000000     0.297600000000     0          
O        O      0.166666666667     0.000000000000     0.349050000000     0          
T        Si     0.185300000000     0.203775000000     0.350000000000     0          
O        O      0.272833333333     0.050050000000     0.385650000000     0          
O        O      0.296283333333     0.058100000000     0.297600000000     0          
T        Si     0.314700000000     0.046225000000     0.350000000000     0          
O        O      0.189500000000     0.074950000000     0.635650000000     0          
O        O      0.212950000000     0.066900000000     0.547600000000     0          
O        O      0.250000000000     0.125000000000     0.599050000000     0          
O        O      0.166666666667     0.000000000000     0.750000000000     0          
O        O      0.250000000000     0.000000000000     0.750000000000     0          
T        Si     0.231366666667     0.078775000000     0.600000000000     0          
T        Si     0.208350000000     0.219300000000     0.750000000000     0          
O        O      0.310500000000     0.175050000000     0.635650000000     0          
O        O      0.287050000000     0.183100000000     0.547600000000     0          
T        Si     0.268633333333     0.171225000000     0.600000000000     0          
T        Si     0.291650000000     0.030700000000     0.750000000000     0          
O        O      0.272833333333     0.050050000000     0.614350000000     0          
O        O      0.296283333333     0.058100000000     0.702400000000     0          
O        O      0.166666666667     0.000000000000     0.650950000000     0          
O        O      0.250000000000     0.125000000000     0.500000000000     0          
O        O      0.166666666667     0.125000000000     0.500000000000     0          
T        Si     0.314700000000     0.046225000000     0.650000000000     0          
T        Si     0.291683333333     0.155700000000     0.500000000000     0          
O        O      0.227166666667     0.199950000000     0.614350000000     0          
O        O      0.203716666667     0.191900000000     0.702400000000     0          
T        Si     0.185300000000     0.203775000000     0.650000000000     0          
T        Si     0.208316666667     0.094300000000     0.500000000000     0          
O        O      0.310500000000     0.175050000000     0.864350000000     0          
O        O      0.287050000000     0.183100000000     0.952400000000     0          
O        O      0.250000000000     0.125000000000     0.900950000000     0          
T        Si     0.268633333333     0.171225000000     0.900000000000     0          
O        O      0.189500000000     0.074950000000     0.864350000000     0          
O        O      0.212950000000     0.066900000000     0.952400000000     0          
T        Si     0.231366666667     0.078775000000     0.900000000000     0          
O        O      0.227166666667     0.199950000000     0.885650000000     0          
O        O      0.203716666667     0.191900000000     0.797600000000     0          
O        O      0.166666666667     0.000000000000     0.849050000000     0          
T        Si     0.185300000000     0.203775000000     0.850000000000     0          
O        O      0.272833333333     0.050050000000     0.885650000000     0          
O        O      0.296283333333     0.058100000000     0.797600000000     0          
T        Si     0.314700000000     0.046225000000     0.850000000000     0          
O        O      0.189500000000     0.324950000000     0.135650000000     0          
O        O      0.212950000000     0.316900000000     0.047600000000     0          
O        O      0.250000000000     0.375000000000     0.099050000000     0          
O        O      0.166666666667     0.250000000000     0.250000000000     0          
O        O      0.250000000000     0.250000000000     0.250000000000     0          
T        Si     0.231366666667     0.328775000000     0.100000000000     0          
T        Si     0.208350000000     0.469300000000     0.250000000000     0          
O        O      0.310500000000     0.425050000000     0.135650000000     0          
O        O      0.287050000000     0.433100000000     0.047600000000     0          
T        Si     0.268633333333     0.421225000000     0.100000000000     0          
T        Si     0.291650000000     0.280700000000     0.250000000000     0          
O        O      0.272833333333     0.300050000000     0.114350000000     0          
O        O      0.296283333333     0.308100000000     0.202400000000     0          
O        O      0.166666666667     0.250000000000     0.150950000000     0          
O        O      0.250000000000     0.375000000000     0.000000000000     0          
O        O      0.166666666667     0.375000000000     0.000000000000     0          
T        Si     0.314700000000     0.296225000000     0.150000000000     0          
T        Si     0.291683333333     0.405700000000     0.000000000000     0          
O        O      0.227166666667     0.449950000000     0.114350000000     0          
O        O      0.203716666667     0.441900000000     0.202400000000     0          
T        Si     0.185300000000     0.453775000000     0.150000000000     0          
T        Si     0.208316666667     0.344300000000     0.000000000000     0          
O        O      0.310500000000     0.425050000000     0.364350000000     0          
O        O      0.287050000000     0.433100000000     0.452400000000     0          
O        O      0.250000000000     0.375000000000     0.400950000000     0          
T        Si     0.268633333333     0.421225000000     0.400000000000     0          
O        O      0.189500000000     0.324950000000     0.364350000000     0          
O        O      0.212950000000     0.316900000000     0.452400000000     0          
T        Si     0.231366666667     0.328775000000     0.400000000000     0          
O        O      0.227166666667     0.449950000000     0.385650000000     0          
O        O      0.203716666667     0.441900000000     0.297600000000     0          
O        O      0.166666666667     0.250000000000     0.349050000000     0          
T        Si     0.185300000000     0.453775000000     0.350000000000     0          
O        O      0.272833333333     0.300050000000     0.385650000000     0          
O        O      0.296283333333     0.308100000000     0.297600000000     0          
T        Si     0.314700000000     0.296225000000     0.350000000000     0          
O        O      0.189500000000     0.324950000000     0.635650000000     0          
O        O      0.212950000000     0.316900000000     0.547600000000     0          
O        O      0.250000000000     0.375000000000     0.599050000000     0          
O        O      0.166666666667     0.250000000000     0.750000000000     0          
O        O      0.250000000000     0.250000000000     0.750000000000     0          
T        Si     0.231366666667     0.328775000000     0.600000000000     0          
T        Si     0.208350000000     0.469300000000     0.750000000000     0          
O        O      0.310500000000     0.425050000000     0.635650000000     0          
O        O      0.287050000000     0.433100000000     0.547600000000     0          
T        Si     0.268633333333     0.421225000000     0.600000000000     0          
T        Si     0.291650000000     0.280700000000     0.750000000000     0          
O        O      0.272833333333     0.300050000000     0.614350000000     0          
O        O      0.296283333333     0.308100000000     0.702400000000     0          
O        O      0.166666666667     0.250000000000     0.650950000000     0          
O        O      0.250000000000     0.375000000000     0.500000000000     0          
O        O      0.166666666667     0.375000000000     0.500000000000     0          
T        Si     0.314700000000     0.296225000000     0.650000000000     0          
T        Si     0.291683333333     0.405700000000     0.500000000000     0          
O        O      0.227166666667     0.449950000000     0.614350000000     0          
O        O      0.203716666667     0.441900000000     0.702400000000     0          
T        Si     0.185300000000     0.453775000000     0.650000000000     0          
T        Si     0.208316666667     0.344300000000     0.500000000000     0          
O        O      0.310500000000     0.425050000000     0.864350000000     0          
O        O      0.287050000000     0.433100000000     0.952400000000     0          
O        O      0.250000000000     0.375000000000     0.900950000000     0          
T        Si     0.268633333333     0.421225000000     0.900000000000     0          
O        O      0.189500000000     0.324950000000     0.864350000000     0          
O        O      0.212950000000     0.316900000000     0.952400000000     0          
T        Si     0.231366666667     0.328775000000     0.900000000000     0          
O        O      0.227166666667     0.449950000000     0.885650000000     0          
O        O      0.203716666667     0.441900000000     0.797600000000     0          
O        O      0.166666666667     0.250000000000     0.849050000000     0          
T        Si     0.185300000000     0.453775000000     0.850000000000     0          
O        O      0.272833333333     0.300050000000     0.885650000000     0          
O        O      0.296283333333     0.308100000000     0.797600000000     0          
T        Si     0.314700000000     0.296225000000     0.850000000000     0          
O        O      0.189500000000     0.574950000000     0.135650000000     0          
O        O      0.212950000000     0.566900000000     0.047600000000     0          
O        O      0.250000000000     0.625000000000     0.099050000000     0          
O        O      0.166666666667     0.500000000000     0.250000000000     0          
O        O      0.250000000000     0.500000000000     0.250000000000     0          
T        Si     0.231366666667     0.578775000000     0.100000000000     0          
T        Si     0.208350000000     0.719300000000     0.250000000000     0          
O        O      0.310500000000     0.675050000000     0.135650000000     0          
O        O      0.287050000000     0.683100000000     0.047600000000     0          
T        Si     0.268633333333     0.671225000000     0.100000000000     0          
T        Si     0.291650000000     0.530700000000     0.250000000000     0          
O        O      0.272833333333     0.550050000000     0.114350000000     0          
O        O      0.296283333333     0.558100000000     0.202400000000     0          
O        O      0.166666666667     0.500000000000     0.150950000000     0          
O        O      0.250000000000     0.625000000000     0.000000000000     0          
O        O      0.166666666667     0.625000000000     0.000000000000     0          
T        Si     0.314700000000     0.546225000000     0.150000000000     0          
T        Si     0.291683333333     0.655700000000     0.000000000000     0          
O        O      0.227166666667     0.699950000000     0.114350000000     0          
O        O      0.203716666667     0.691900000000     0.202400000000     0          
T        Si     0.185300000000     0.703775000000     0.150000000000     0          
T        Si     0.208316666667     0.594300000000     0.000000000000     0          
O        O      0.310500000000     0.675050000000     0.364350000000     0          
O        O      0.287050000000     0.683100000000     0.452400000000     0          
O        O      0.250000000000     0.625000000000     0.400950000000     0          
T        Si     0.268633333333     0.671225000000     0.400000000000     0          
O        O      0.189500000000     0.574950000000     0.364350000000     0          
O        O      0.212950000000     0.566900000000     0.452400000000     0          
T        Si     0.231366666667     0.578775000000     0.400000000000     0          
O        O      0.227166666667     0.699950000000     0.385650000000     0          
O        O      0.203716666667     0.691900000000     0.297600000000     0          
O        O      0.166666666667     0.500000000000     0.349050000000     0          
T        Si     0.185300000000     0.703775000000     0.350000000000     0          
O        O      0.272833333333     0.550050000000     0.385650000000     0          
O        O      0.296283333333     0.558100000000     0.297600000000     0          
T        Si     0.314700000000     0.546225000000     0.350000000000     0          
O        O      0.189500000000     0.574950000000     0.635650000000     0          
O        O      0.212950000000     0.566900000000     0.547600000000     0          
O        O      0.250000000000     0.625000000000     0.599050000000     0          
O        O      0.166666666667     0.500000000000     0.750000000000     0          
O        O      0.250000000000     0.500000000000     0.750000000000     0          
T        Si     0.231366666667     0.578775000000     0.600000000000     0          
T        Si     0.208350000000     0.719300000000     0.750000000000     0          
O        O      0.310500000000     0.675050000000     0.635650000000     0          
O        O      0.287050000000     0.683100000000     0.547600000000     0          
T        Si     0.268633333333     0.671225000000     0.600000000000     0          
T        Si     0.291650000000     0.530700000000     0.750000000000     0          
O        O      0.272833333333     0.550050000000     0.614350000000     0          
O        O      0.296283333333     0.558100000000     0.702400000000     0          
O        O      0.166666666667     0.500000000000     0.650950000000     0          
O        O      0.250000000000     0.625000000000     0.500000000000     0          
O        O      0.166666666667     0.625000000000     0.500000000000     0          
T        Si     0.314700000000     0.546225000000     0.650000000000     0          
T        Si     0.291683333333     0.655700000000     0.500000000000     0          
O        O      0.227166666667     0.699950000000     0.614350000000     0          
O        O      0.203716666667     0.691900000000     0.702400000000     0          
T        Si     0.185300000000     0.703775000000     0.650000000000     0          
T        Si     0.208316666667     0.594300000000     0.500000000000     0          
O        O      0.310500000000     0.675050000000     0.864350000000     0          
O        O      0.287050000000     0.683100000000     0.952400000000     0          
O        O      0.250000000000     0.625000000000     0.900950000000     0          
T        Si     0.268633333333     0.671225000000     0.900000000000     0          
O        O      0.189500000000     0.574950000000     0.864350000000     0          
O        O      0.212950000000     0.566900000000     0.952400000000     0          
T        Si     0.231366666667     0.578775000000     0.900000000000     0          
O        O      0.227166666667     0.699950000000     0.885650000000     0          
O        O      0.203716666667     0.691900000000     0.797600000000     0          
O        O      0.166666666667     0.500000000000     0.849050000000     0          
T        Si     0.185300000000     0.703775000000     0.850000000000     0          
O        O      0.272833333333     0.550050000000     0.885650000000     0          
O        O      0.296283333333     0.558100000000     0.797600000000     0          
T        Si     0.314700000000     0.546225000000     0.850000000000     0          
O        O      0.189500000000     0.824950000000     0.135650000000     0          
O        O      0.212950000000     0.816900000000     0.047600000000     0          
O        O      0.250000000000     0.875000000000     0.099050000000     0          
O        O      0.166666666667     0.750000000000     0.250000000000     0          
O        O      0.250000000000     0.750000000000     0.250000000000     0          
T        Si     0.231366666667     0.828775000000     0.100000000000     0          
T        Si     0.208350000000     0.969300000000     0.250000000000     0          
O        O      0.310500000000     0.925050000000     0.135650000000     0          
O        O      0.287050000000     0.933100000000     0.047600000000     0          
T        Si     0.268633333333     0.921225000000     0.100000000000     0          
T        Si     0.291650000000     0.780700000000     0.250000000000     0          
O        O      0.272833333333     0.800050000000     0.114350000000     0          
O        O      0.296283333333     0.808100000000     0.202400000000     0          
O        O      0.166666666667     0.750000000000     0.150950000000     0          
O        O      0.250000000000     0.875000000000     0.000000000000     0          
O        O      0.166666666667     0.875000000000     0.000000000000     0          
T        Si     0.314700000000     0.796225000000     0.150000000000     0          
T        Si     0.291683333333     0.905700000000     0.000000000000     0          
O        O      0.227166666667     0.949950000000     0.114350000000     0          
O        O      0.203716666667     0.941900000000     0.202400000000     0          
T        Si     0.185300000000     0.953775000000     0.150000000000     0          
T        Si     0.208316666667     0.844300000000     0.000000000000     0          
O        O      0.310500000000     0.925050000000     0.364350000000     0          
O        O      0.287050000000     0.933100000000     0.452400000000     0          
O        O      0.250000000000     0.875000000000     0.400950000000     0          
T        Si     0.268633333333     0.921225000000     0.400000000000     0          
O        O      0.189500000000     0.824950000000     0.364350000000     0          
O        O      0.212950000000     0.816900000000     0.452400000000     0          
T        Si     0.231366666667     0.828775000000     0.400000000000     0          
O        O      0.227166666667     0.949950000000     0.385650000000     0          
O        O      0.203716666667     0.941900000000     0.297600000000     0          
O        O      0.166666666667     0.750000000000     0.349050000000     0          
T        Si     0.185300000000     0.953775000000     0.350000000000     0          
O        O      0.272833333333     0.800050000000     0.385650000000     0          
O        O      0.296283333333     0.808100000000     0.297600000000     0          
T        Si     0.314700000000     0.796225000000     0.350000000000     0          
O        O      0.189500000000     0.824950000000     0.635650000000     0          
O        O      0.212950000000     0.816900000000     0.547600000000     0          
O        O      0.250000000000     0.875000000000     0.599050000000     0          
O        O      0.166666666667     0.750000000000     0.750000000000     0          
O        O      0.250000000000     0.750000000000     0.750000000000     0          
T        Si     0.231366666667     0.828775000000     0.600000000000     0          
T        Si     0.208350000000     0.969300000000     0.750000000000     0          
O        O      0.310500000000     0.925050000000     0.635650000000     0          
O        O      0.287050000000     0.933100000000     0.547600000000     0          
T        Si     0.268633333333     0.921225000000     0.600000000000     0          
T        Si     0.291650000000     0.780700000000     0.750000000000     0          
O        O      0.272833333333     0.800050000000     0.614350000000     0          
O        O      0.296283333333     0.808100000000     0.702400000000     0          
O        O      0.166666666667     0.750000000000     0.650950000000     0          
O        O      0.250000000000     0.875000000000     0.500000000000     0          
O        O      0.166666666667     0.875000000000     0.500000000000     0          
T        Si     0.314700000000     0.796225000000     0.650000000000     0          
T        Si     0.291683333333     0.905700000000     0.500000000000     0          
O        O      0.227166666667     0.949950000000     0.614350000000     0          
O        O      0.203716666667     0.941900000000     0.702400000000     0          
T        Si     0.185300000000     0.953775000000     0.650000000000     0          
T        Si     0.208316666667     0.844300000000     0.500000000000     0          
O        O      0.310500000000     0.925050000000     0.864350000000     0          
O        O      0.287050000000     0.933100000000     0.952400000000     0          
O        O      0.250000000000     0.875000000000     0.900950000000     0          
T        Si     0.268633333333     0.921225000000     0.900000000000     0          
O        O      0.189500000000     0.824950000000     0.864350000000     0          
O        O      0.212950000000     0.816900000000     0.952400000000     0          
T        Si     0.231366666667     0.828775000000     0.900000000000     0          
O        O      0.227166666667     0.949950000000     0.885650000000     0          
O        O      0.203716666667     0.941900000000     0.797600000000     0          
O        O      0.166666666667     0.750000000000     0.849050000000     0          
T        Si     0.185300000000     0.953775000000     0.850000000000     0          
O        O      0.272833333333     0.800050000000     0.885650000000     0          
O        O      0.296283333333     0.808100000000     0.797600000000     0          
T        Si     0.314700000000     0.796225000000     0.850000000000     0          
O        O      0.356166666667     0.074950000000     0.135650000000     0          
O        O      0.379616666667     0.066900000000     0.047600000000     0          
O        O      0.416666666667     0.125000000000     0.099050000000     0          
O        O      0.333333333333     0.000000000000     0.250000000000     0          
O        O      0.416666666667     0.000000000000     0.250000000000     0          
T        Si     0.398033333333     0.078775000000     0.100000000000     0          
T        Si     0.375016666667     0.219300000000     0.250000000000     0          
O        O      0.477166666667     0.175050000000     0.135650000000     0          
O        O      0.453716666667     0.183100000000     0.047600000000     0          
T        Si     0.435300000000     0.171225000000     0.100000000000     0          
T        Si     0.458316666667     0.030700000000     0.250000000000     0          
O        O      0.439500000000     0.050050000000     0.114350000000     0          
O        O      0.462950000000     0.058100000000     0.202400000000     0          
O        O      0.333333333333     0.000000000000     0.150950000000     0          
O        O      0.416666666667     0.125000000000     0.000000000000     0          
O        O      0.333333333333     0.125000000000     0.000000000000     0          
T        Si     0.481366666667     0.046225000000     0.150000000000     0          
T        Si     0.458350000000     0.155700000000     0.000000000000     0          
O        O      0.393833333333     0.199950000000     0.114350000000     0          
O        O      0.370383333333     0.191900000000     0.202400000000     0          
T        Si     0.351966666667     0.203775000000     0.150000000000     0          
T        Si     0.374983333333     0.094300000000     0.000000000000     0          
O        O      0.477166666667     0.175050000000     0.364350000000     0          
O        O      0.453716666667     0.183100000000     0.452400000000     0          
O        O      0.416666666667     0.125000000000     0.400950000000     0          
T        Si     0.435300000000     0.171225000000     0.400000000000     0          
O        O      0.356166666667     0.074950000000     0.364350000000     0          
O        O      0.379616666667     0.066900000000     0.452400000000     0          
T        Si     0.398033333333     0.078775000000     0.400000000000     0          
O        O      0.393833333333     0.199950000000     0.385650000000     0          
O        O      0.370383333333     0.191900000000     0.297600000000     0          
O        O      0.333333333333     0.000000000000     0.349050000000     0          
T        Si     0.351966666667     0.203775000000     0.350000000000     0          
O        O      0.439500000000     0.050050000000     0.385650000000     0          
O        O      0.462950000000     0.058100000000     0.297600000000     0          
T        Si     0.481366666667     0.046225000000     0.350000000000     0          
O        O      0.356166666667     0.074950000000     0.635650000000     0          
O        O      0.379616666667     0.066900000000     0.547600000000     0          
O        O      0.416666666667     0.125000000000     0.599050000000     0          
O        O      0.333333333333     0.000000000000     0.750000000000     0          
O        O      0.416666666667     0.000000000000     0.750000000000     0          
T        Si     0.398033333333     0.078775000000     0.600000000000     0          
T        Si     0.375016666667     0.219300000000     0.750000000000     0          
O        O      0.477166666667     0.175050000000     0.635650000000     0          
O        O      0.453716666667     0.183100000000     0.547600000000     0          
T        Si     0.435300000000     0.171225000000     0.600000000000     0          
T        Si     0.458316666667     0.030700000000     0.750000000000     0          
O        O      0.439500000000     0.050050000000     0.614350000000     0          
O        O      0.462950000000     0.058100000000     0.702400000000     0          
O        O      0.333333333333     0.000000000000     0.650950000000     0          
O        O      0.416666666667     0.125000000000     0.500000000000     0          
O        O      0.333333333333     0.125000000000     0.500000000000     0          
T        Si     0.481366666667     0.046225000000     0.650000000000     0          
T        Si     0.458350000000     0.155700000000     0.500000000000     0          
O        O      0.393833333333     0.199950000000     0.614350000000     0          
O        O      0.370383333333     0.191900000000     0.702400000000     0          
T        Si     0.351966666667     0.203775000000     0.650000000000     0          
T        Si     0.374983333333     0.094300000000     0.500000000000     0          
O        O      0.477166666667     0.175050000000     0.864350000000     0          
O        O      0.453716666667     0.183100000000     0.952400000000     0          
O        O      0.416666666667     0.125000000000     0.900950000000     0          
T        Si     0.435300000000     0.171225000000     0.900000000000     0          
O        O      0.356166666667     0.074950000000     0.864350000000     0          
O        O      0.379616666667     0.066900000000     0.952400000000     0          
T        Si     0.398033333333     0.078775000000     0.900000000000     0          
O        O      0.393833333333     0.199950000000     0.885650000000     0          
O        O      0.370383333333     0.191900000000     0.797600000000     0          
O        O      0.333333333333     0.000000000000     0.849050000000     0          
T        Si     0.351966666667     0.203775000000     0.850000000000     0          
O        O      0.439500000000     0.050050000000     0.885650000000     0          
O        O      0.462950000000     0.058100000000     0.797600000000     0          
T        Si     0.481366666667     0.046225000000     0.850000000000     0          
O        O      0.356166666667     0.324950000000     0.135650000000     0          
O        O      0.379616666667     0.316900000000     0.047600000000     0          
O        O      0.416666666667     0.375000000000     0.099050000000     0          
O        O      0.333333333333     0.250000000000     0.250000000000     0          
O        O      0.416666666667     0.250000000000     0.250000000000     0          
T        Si     0.398033333333     0.328775000000     0.100000000000     0          
T        Si     0.375016666667     0.469300000000     0.250000000000     0          
O        O      0.477166666667     0.425050000000     0.135650000000     0          
O        O      0.453716666667     0.433100000000     0.047600000000     0          
T        Si     0.435300000000     0.421225000000     0.100000000000     0          
T        Si     0.458316666667     0.280700000000     0.250000000000     0          
O        O      0.439500000000     0.300050000000     0.114350000000     0          
O        O      0.462950000000     0.308100000000     0.202400000000     0          
O        O      0.333333333333     0.250000000000     0.150950000000     0          
O        O      0.416666666667     0.375000000000     0.000000000000     0          
O        O      0.333333333333     0.375000000000     0.000000000000     0          
T        Si     0.481366666667     0.296225000000     0.150000000000     0          
T        Si     0.458350000000     0.405700000000     0.000000000000     0          
O        O      0.393833333333     0.449950000000     0.114350000000     0          
O        O      0.370383333333     0.441900000000     0.202400000000     0          
T        Si     0.351966666667     0.453775000000     0.150000000000     0          
T        Si     0.374983333333     0.344300000000     0.000000000000     0          
O        O      0.477166666667     0.425050000000     0.364350000000     0          
O        O      0.453716666667     0.433100000000     0.452400000000     0          
O        O      0.416666666667     0.375000000000     0.400950000000     0          
T        Si     0.435300000000     0.421225000000     0.400000000000     0          
O        O      0.356166666667     0.324950000000     0.364350000000     0          
O        O      0.379616666667     0.316900000000     0.452400000000     0          
T        Si     0.398033333333     0.328775000000     0.400000000000     0          
O        O      0.393833333333     0.449950000000     0.385650000000     0          
O        O      0.370383333333     0.441900000000     0.297600000000     0          
O        O      0.333333333333     0.250000000000     0.349050000000     0          
T        Si     0.351966666667     0.453775000000     0.350000000000     0          
O        O      0.439500000000     0.300050000000     0.385650000000     0          
O        O      0.462950000000     0.308100000000     0.297600000000     0          
T        Si     0.481366666667     0.296225000000     0.350000000000     0          
O        O      0.356166666667     0.324950000000     0.635650000000     0          
O        O      0.379616666667     0.316900000000     0.547600000000     0          
O        O      0.416666666667     0.375000000000     0.599050000000     0          
O        O      0.333333333333     0.250000000000     0.750000000000     0          
O        O      0.416666666667     0.250000000000     0.750000000000     0          
T        Si     0.398033333333     0.328775000000     0.600000000000     0          
T        Si     0.375016666667     0.469300000000     0.750000000000     0          
O        O      0.477166666667     0.425050000000     0.635650000000     0          
O        O      0.453716666667     0.433100000000     0.547600000000     0          
T        Si     0.435300000000     0.421225000000     0.600000000000     0          
T        Si     0.458316666667     0.280700000000     0.750000000000     0          
O        O      0.439500000000     0.300050000000     0.614350000000     0          
O        O      0.462950000000     0.308100000000     0.702400000000     0          
O        O      0.333333333333     0.250000000000     0.650950000000     0          
O        O      0.416666666667     0.375000000000     0.500000000000     0          
O        O      0.333333333333     0.375000000000     0.500000000000     0          
T        Si     0.481366666667     0.296225000000     0.650000000000     0          
T        Si     0.458350000000     0.405700000000     0.500000000000     0          
O        O      0.393833333333     0.449950000000     0.614350000000     0          
O        O      0.370383333333     0.441900000000     0.702400000000     0          
T        Si     0.351966666667     0.453775000000     0.650000000000     0          
T        Si     0.374983333333     0.344300000000     0.500000000000     0          
O        O      0.477166666667     0.425050000000     0.864350000000     0          
O        O      0.453716666667     0.433100000000     0.952400000000     0          
O        O      0.416666666667     0.375000000000     0.900950000000     0          
T        Si     0.435300000000     0.421225000000     0.900000000000     0          
O        O      0.356166666667     0.324950000000     0.864350000000     0          
O        O      0.379616666667     0.316900000000     0.952400000000     0          
T        Si     0.398033333333     0.328775000000     0.900000000000     0          
O        O      0.393833333333     0.449950000000     0.885650000000     0          
O        O      0.370383333333     0.441900000000     0.797600000000     0          
O        O      0.333333333333     0.250000000000     0.849050000000     0          
T        Si     0.351966666667     0.453775000000     0.850000000000     0          
O        O      0.439500000000     0.300050000000     0.885650000000     0          
O        O      0.462950000000     0.308100000000     0.797600000000     0          
T        Si     0.481366666667     0.296225000000     0.850000000000     0          
O        O      0.356166666667     0.574950000000     0.135650000000     0          
O        O      0.379616666667     0.566900000000     0.047600000000     0          
O        O      0.416666666667     0.625000000000     0.099050000000     0          
O        O      0.333333333333     0.500000000000     0.250000000000     0          
O        O      0.416666666667     0.500000000000     0.250000000000     0          
T        Si     0.398033333333     0.578775000000     0.100000000000     0          
T        Si     0.375016666667     0.719300000000     0.250000000000     0          
O        O      0.477166666667     0.675050000000     0.135650000000     0          
O        O      0.453716666667     0.683100000000     0.047600000000     0          
T        Si     0.435300000000     0.671225000000     0.100000000000     0          
T        Si     0.458316666667     0.530700000000     0.250000000000     0          
O        O      0.439500000000     0.550050000000     0.114350000000     0          
O        O      0.462950000000     0.558100000000     0.202400000000     0          
O        O      0.333333333333     0.500000000000     0.150950000000     0          
O        O      0.416666666667     0.625000000000     0.000000000000     0          
O        O      0.333333333333     0.625000000000     0.000000000000     0          
T        Si     0.481366666667     0.546225000000     0.150000000000     0          
T        Si     0.458350000000     0.655700000000     0.000000000000     0          
O        O      0.393833333333     0.699950000000     0.114350000000     0          
O        O      0.370383333333     0.691900000000     0.202400000000     0          
T        Si     0.351966666667     0.703775000000     0.150000000000     0          
T        Si     0.374983333333     0.594300000000     0.000000000000     0          
O        O      0.477166666667     0.675050000000     0.364350000000     0          
O        O      0.453716666667     0.683100000000     0.452400000000     0          
O        O      0.416666666667     0.625000000000     0.400950000000     0          
T        Si     0.435300000000     0.671225000000     0.400000000000     0          
O        O      0.356166666667     0.574950000000     0.364350000000     0          
O        O      0.379616666667     0.566900000000     0.452400000000     0          
T        Si     0.398033333333     0.578775000000     0.400000000000     0          
O        O      0.393833333333     0.699950000000     0.385650000000     0          
O        O      0.370383333333     0.691900000000     0.297600000000     0          
O        O      0.333333333333     0.500000000000     0.349050000000     0          
T        Si     0.351966666667     0.703775000000     0.350000000000     0          
O        O      0.439500000000     0.550050000000     0.385650000000     0          
O        O      0.462950000000     0.558100000000     0.297600000000     0          
T        Si     0.481366666667     0.546225000000     0.350000000000     0          
O        O      0.356166666667     0.574950000000     0.635650000000     0          
O        O      0.379616666667     0.566900000000     0.547600000000     0          
O        O      0.416666666667     0.625000000000     0.599050000000     0          
O        O      0.333333333333     0.500000000000     0.750000000000     0          
O        O      0.416666666667     0.500000000000     0.750000000000     0          
T        Si     0.398033333333     0.578775000000     0.600000000000     0          
T        Si     0.375016666667     0.719300000000     0.750000000000     0          
O        O      0.477166666667     0.675050000000     0.635650000000     0          
O        O      0.453716666667     0.683100000000     0.547600000000     0          
T        Si     0.435300000000     0.671225000000     0.600000000000     0          
T        Si     0.458316666667     0.530700000000     0.750000000000     0          
O        O      0.439500000000     0.550050000000     0.614350000000     0          
O        O      0.462950000000     0.558100000000     0.702400000000     0          
O        O      0.333333333333     0.500000000000     0.650950000000     0          
O        O      0.416666666667     0.625000000000     0.500000000000     0          
O        O      0.333333333333     0.625000000000     0.500000000000     0          
T        Si     0.481366666667     0.546225000000     0.650000000000     0          
T        Si     0.458350000000     0.655700000000     0.500000000000     0          
O        O      0.393833333333     0.699950000000     0.614350000000     0          
O        O      0.370383333333     0.691900000000     0.702400000000     0          
T        Si     0.351966666667     0.703775000000     0.650000000000     0          
T        Si     0.374983333333     0.594300000000     0.500000000000     0          
O        O      0.477166666667     0.675050000000     0.864350000000     0          
O        O      0.453716666667     0.683100000000     0.952400000000     0          
O        O      0.416666666667     0.625000000000     0.900950000000     0          
T        Si     0.435300000000     0.671225000000     0.900000000000     0          
O        O      0.356166666667     0.574950000000     0.864350000000     0          
O        O      0.379616666667     0.566900000000     0.952400000000     0          
T        Si     0.398033333333     0.578775000000     0.900000000000     0          
O        O      0.393833333333     0.699950000000     0.885650000000     0          
O        O      0.370383333333     0.691900000000     0.797600000000     0          
O        O      0.333333333333     0.500000000000     0.849050000000     0          
T        Si     0.351966666667     0.703775000000     0.850000000000     0          
O        O      0.439500000000     0.550050000000     0.885650000000     0          
O        O      0.462950000000     0.558100000000     0.797600000000     0          
T        Si     0.481366666667     0.546225000000     0.850000000000     0          
O        O      0.356166666667     0.824950000000     0.135650000000     0          
O        O      0.379616666667     0.816900000000     0.047600000000     0          
O        O      0.416666666667     0.875000000000     0.099050000000     0          
O        O      0.333333333333     0.750000000000     0.250000000000     0          
O        O      0.416666666667     0.750000000000     0.250000000000     0          
T        Si     0.398033333333     0.828775000000     0.100000000000     0          
T        Si     0.375016666667     0.969300000000     0.250000000000     0          
O        O      0.477166666667     0.925050000000     0.135650000000     0          
O        O      0.453716666667     0.933100000000     0.047600000000     0          
T        Si     0.435300000000     0.921225000000     0.100000000000     0          
T        Si     0.458316666667     0.780700000000     0.250000000000     0          
O        O      0.439500000000     0.800050000000     0.114350000000     0          
O        O      0.462950000000     0.808100000000     0.202400000000     0          
O        O      0.333333333333     0.750000000000     0.150950000000     0          
O        O      0.416666666667     0.875000000000     0.000000000000     0          
O        O      0.333333333333     0.875000000000     0.000000000000     0          
T        Si     0.481366666667     0.796225000000     0.150000000000     0          
T        Si     0.458350000000     0.905700000000     0.000000000000     0          
O        O      0.393833333333     0.949950000000     0.114350000000     0          
O        O      0.370383333333     0.941900000000     0.202400000000     0          
T        Si     0.351966666667     0.953775000000     0.150000000000     0          
T        Si     0.374983333333     0.844300000000     0.000000000000     0          
O        O      0.477166666667     0.925050000000     0.364350000000     0          
O        O      0.453716666667     0.933100000000     0.452400000000     0          
O        O      0.416666666667     0.875000000000     0.400950000000     0          
T        Si     0.435300000000     0.921225000000     0.400000000000     0          
O        O      0.356166666667     0.824950000000     0.364350000000     0          
O        O      0.379616666667     0.816900000000     0.452400000000     0          
T        Si     0.398033333333     0.828775000000     0.400000000000     0          
O        O      0.393833333333     0.949950000000     0.385650000000     0          
O        O      0.370383333333     0.941900000000     0.297600000000     0          
O        O      0.333333333333     0.750000000000     0.349050000000     0          
T        Si     0.351966666667     0.953775000000     0.350000000000     0          
O        O      0.439500000000     0.800050000000     0.385650000000     0          
O        O      0.462950000000     0.808100000000     0.297600000000     0          
T        Si     0.481366666667     0.796225000000     0.350000000000     0          
O        O      0.356166666667     0.824950000000     0.635650000000     0          
O        O      0.379616666667     0.816900000000     0.547600000000     0          
O        O      0.416666666667     0.875000000000     0.599050000000     0          
O        O      0.333333333333     0.750000000000     0.750000000000     0          
O        O      0.416666666667     0.750000000000     0.750000000000     0          
T        Si     0.398033333333     0.828775000000     0.600000000000     0          
T        Si     0.375016666667     0.969300000000     0.750000000000     0          
O        O      0.477166666667     0.925050000000     0.635650000000     0          
O        O      0.453716666667     0.933100000000     0.547600000000     0          
T        Si     0.435300000000     0.921225000000     0.600000000000     0          
T        Si     0.458316666667     0.780700000000     0.750000000000     0          
O        O      0.439500000000     0.800050000000     0.614350000000     0          
O        O      0.462950000000     0.808100000000     0.702400000000     0          
O        O      0.333333333333     0.750000000000     0.650950000000     0          
O        O      0.416666666667     0.875000000000     0.500000000000     0          
O        O      0.333333333333     0.875000000000     0.500000000000     0          
T        Si     0.481366666667     0.796225000000     0.650000000000     0          
T        Si     0.458350000000     0.905700000000     0.500000000000     0          
O        O      0.393833333333     0.949950000000     0.614350000000     0          
O        O      0.370383333333     0.941900000000     0.702400000000     0          
T        Si     0.351966666667     0.953775000000     0.650000000000     0          
T        Si     0.374983333333     0.844300000000     0.500000000000     0          
O        O      0.477166666667     0.925050000000     0.864350000000     0          
O        O      0.453716666667     0.933100000000     0.952400000000     0          
O        O      0.416666666667     0.875000000000     0.900950000000     0          
T        Si     0.435300000000     0.921225000000     0.900000000000     0          
O        O      0.356166666667     0.824950000000     0.864350000000     0          
O        O      0.379616666667     0.816900000000     0.952400000000     0          
T        Si     0.398033333333     0.828775000000     0.900000000000     0          
O        O      0.393833333333     0.949950000000     0.885650000000     0          
O        O      0.370383333333     0.941900000000     0.797600000000     0          
O        O      0.333333333333     0.750000000000     0.849050000000     0          
T        Si     0.351966666667     0.953775000000     0.850000000000     0          
O        O      0.439500000000     0.800050000000     0.885650000000     0          
O        O      0.462950000000     0.808100000000     0.797600000000     0          
T        Si     0.481366666667     0.796225000000     0.850000000000     0          
O        O      0.522833333333     0.074950000000     0.135650000000     0          
O        O      0.546283333333     0.066900000000     0.047600000000     0          
O        O      0.583333333333     0.125000000000     0.099050000000     0          
O        O      0.500000000000     0.000000000000     0.250000000000     0          
O        O      0.583333333333     0.000000000000     0.250000000000     0          
T        Si     0.564700000000     0.078775000000     0.100000000000     0          
T        Si     0.541683333333     0.219300000000     0.250000000000     0          
O        O      0.643833333333     0.175050000000     0.135650000000     0          
O        O      0.620383333333     0.183100000000     0.047600000000     0          
T        Si     0.601966666667     0.171225000000     0.100000000000     0          
T        Si     0.624983333333     0.030700000000     0.250000000000     0          
O        O      0.606166666667     0.050050000000     0.114350000000     0          
O        O      0.629616666667     0.058100000000     0.202400000000     0          
O        O      0.500000000000     0.000000000000     0.150950000000     0          
O        O      0.583333333333     0.125000000000     0.000000000000     0          
O        O      0.500000000000     0.125000000000     0.000000000000     0          
T        Si     0.648033333333     0.046225000000     0.150000000000     0          
T        Si     0.625016666667     0.155700000000     0.000000000000     0          
O        O      0.560500000000     0.199950000000     0.114350000000     0          
O        O      0.537050000000     0.191900000000     0.202400000000     0          
T        Si     0.518633333333     0.203775000000     0.150000000000     0          
T        Si     0.541650000000     0.094300000000     0.000000000000     0          
O        O      0.643833333333     0.175050000000     0.364350000000     0          
O        O      0.620383333333     0.183100000000     0.452400000000     0          
O        O      0.583333333333     0.125000000000     0.400950000000     0          
T        Si     0.601966666667     0.171225000000     0.400000000000     0          
O        O      0.522833333333     0.074950000000     0.364350000000     0          
O        O      0.546283333333     0.066900000000     0.452400000000     0          
T        Si     0.564700000000     0.078775000000     0.400000000000     0          
O        O      0.560500000000     0.199950000000     0.385650000000     0          
O        O      0.537050000000     0.191900000000     0.297600000000     0          
O        O      0.500000000000     0.000000000000     0.349050000000     0          
T        Si     0.518633333333     0.203775000000     0.350000000000     0          
O        O      0.606166666667     0.050050000000     0.385650000000     0          
O        O      0.629616666667     0.058100000000     0.297600000000     0          
T        Si     0.648033333333     0.046225000000     0.350000000000     0          
O        O      0.522833333333     0.074950000000     0.635650000000     0          
O        O      0.546283333333     0.066900000000     0.547600000000     0          
O        O      0.583333333333     0.125000000000     0.599050000000     0          
O        O      0.500000000000     0.000000000000     0.750000000000     0          
O        O      0.583333333333     0.000000000000     0.750000000000     0          
T        Si     0.564700000000     0.078775000000     0.600000000000     0          
T        Si     0.541683333333     0.219300000000     0.750000000000     0          
O        O      0.643833333333     0.175050000000     0.635650000000     0          
O        O      0.620383333333     0.183100000000     0.547600000000     0          
T        Si     0.601966666667     0.171225000000     0.600000000000     0          
T        Si     0.624983333333     0.030700000000     0.750000000000     0          
O        O      0.606166666667     0.050050000000     0.614350000000     0          
O        O      0.629616666667     0.058100000000     0.702400000000     0          
O        O      0.500000000000     0.000000000000     0.650950000000     0          
O        O      0.583333333333     0.125000000000     0.500000000000     0          
O        O      0.500000000000     0.125000000000     0.500000000000     0          
T        Si     0.648033333333     0.046225000000     0.650000000000     0          
T        Si     0.625016666667     0.155700000000     0.500000000000     0          
O        O      0.560500000000     0.199950000000     0.614350000000     0          
O        O      0.537050000000     0.191900000000     0.702400000000     0          
T        Si     0.518633333333     0.203775000000     0.650000000000     0          
T        Si     0.541650000000     0.094300000000     0.500000000000     0          
O        O      0.643833333333     0.175050000000     0.864350000000     0          
O        O      0.620383333333     0.183100000000     0.952400000000     0          
O        O      0.583333333333     0.125000000000     0.900950000000     0          
T        Si     0.601966666667     0.171225000000     0.900000000000     0          
O        O      0.522833333333     0.074950000000     0.864350000000     0          
O        O      0.546283333333     0.066900000000     0.952400000000     0          
T        Si     0.564700000000     0.078775000000     0.900000000000     0          
O        O      0.560500000000     0.199950000000     0.885650000000     0          
O        O      0.537050000000     0.191900000000     0.797600000000     0          
O        O      0.500000000000     0.000000000000     0.849050000000     0          
T        Si     0.518633333333     0.203775000000     0.850000000000     0          
O        O      0.606166666667     0.050050000000     0.885650000000     0          
O        O      0.629616666667     0.058100000000     0.797600000000     0          
T        Si     0.648033333333     0.046225000000     0.850000000000     0          
O        O      0.522833333333     0.324950000000     0.135650000000     0          
O        O      0.546283333333     0.316900000000     0.047600000000     0          
O        O      0.583333333333     0.375000000000     0.099050000000     0          
O        O      0.500000000000     0.250000000000     0.250000000000     0          
O        O      0.583333333333     0.250000000000     0.250000000000     0          
T        Si     0.564700000000     0.328775000000     0.100000000000     0          
T        Si     0.541683333333     0.469300000000     0.250000000000     0          
O        O      0.643833333333     0.425050000000     0.135650000000     0          
O        O      0.620383333333     0.433100000000     0.047600000000     0          
T        Si     0.601966666667     0.421225000000     0.100000000000     0          
T        Si     0.624983333333     0.280700000000     0.250000000000     0          
O        O      0.606166666667     0.300050000000     0.114350000000     0          
O        O      0.629616666667     0.308100000000     0.202400000000     0          
O        O      0.500000000000     0.250000000000     0.150950000000     0          
O        O      0.583333333333     0.375000000000     0.000000000000     0          
O        O      0.500000000000     0.375000000000     0.000000000000     0          
T        Si     0.648033333333     0.296225000000     0.150000000000     0          
T        Si     0.625016666667     0.405700000000     0.000000000000     0          
O        O      0.560500000000     0.449950000000     0.114350000000     0          
O        O      0.537050000000     0.441900000000     0.202400000000     0          
T        Si     0.518633333333     0.453775000000     0.150000000000     0          
T        Si     0.541650000000     0.344300000000     0.000000000000     0          
O        O      0.643833333333     0.425050000000     0.364350000000     0          
O        O      0.620383333333     0.433100000000     0.452400000000     0          
O        O      0.583333333333     0.375000000000     0.400950000000     0          
T        Si     0.601966666667     0.421225000000     0.400000000000     0          
O        O      0.522833333333     0.324950000000     0.364350000000     0          
O        O      0.546283333333     0.316900000000     0.452400000000     0          
T        Si     0.564700000000     0.328775000000     0.400000000000     0          
O        O      0.560500000000     0.449950000000     0.385650000000     0          
O        O      0.537050000000     0.441900000000     0.297600000000     0          
O        O      0.500000000000     0.250000000000     0.349050000000     0          
T        Si     0.518633333333     0.453775000000     0.350000000000     0          
O        O      0.606166666667     0.300050000000     0.385650000000     0          
O        O      0.629616666667     0.308100000000     0.297600000000     0          
T        Si     0.648033333333     0.296225000000     0.350000000000     0          
O        O      0.522833333333     0.324950000000     0.635650000000     0          
O        O      0.546283333333     0.316900000000     0.547600000000     0          
O        O      0.583333333333     0.375000000000     0.599050000000     0          
O        O      0.500000000000     0.250000000000     0.750000000000     0          
O        O      0.583333333333     0.250000000000     0.750000000000     0          
T        Si     0.564700000000     0.328775000000     0.600000000000     0          
T        Si     0.541683333333     0.469300000000     0.750000000000     0          
O        O      0.643833333333     0.425050000000     0.635650000000     0          
O        O      0.620383333333     0.433100000000     0.547600000000     0          
T        Si     0.601966666667     0.421225000000     0.600000000000     0          
T        Si     0.624983333333     0.280700000000     0.750000000000     0          
O        O      0.606166666667     0.300050000000     0.614350000000     0          
O        O      0.629616666667     0.308100000000     0.702400000000     0          
O        O      0.500000000000     0.250000000000     0.650950000000     0          
O        O      0.583333333333     0.375000000000     0.500000000000     0          
O        O      0.500000000000     0.375000000000     0.500000000000     0          
T        Si     0.648033333333     0.296225000000     0.650000000000     0          
T        Si     0.625016666667     0.405700000000     0.500000000000     0          
O        O      0.560500000000     0.449950000000     0.614350000000     0          
O        O      0.537050000000     0.441900000000     0.702400000000     0          
T        Si     0.518633333333     0.453775000000     0.650000000000     0          
T        Si     0.541650000000     0.344300000000     0.500000000000     0          
O        O      0.643833333333     0.425050000000     0.864350000000     0          
O        O      0.620383333333     0.433100000000     0.952400000000     0          
O        O      0.583333333333     0.375000000000     0.900950000000     0          
T        Si     0.601966666667     0.421225000000     0.900000000000     0          
O        O      0.522833333333     0.324950000000     0.864350000000     0          
O        O      0.546283333333     0.316900000000     0.952400000000     0          
T        Si     0.564700000000     0.328775000000     0.900000000000     0          
O        O      0.560500000000     0.449950000000     0.885650000000     0          
O        O      0.537050000000     0.441900000000     0.797600000000     0          
O        O      0.500000000000     0.250000000000     0.849050000000     0          
T        Si     0.518633333333     0.453775000000     0.850000000000     0          
O        O      0.606166666667     0.300050000000     0.885650000000     0          
O        O      0.629616666667     0.308100000000     0.797600000000     0          
T        Si     0.648033333333     0.296225000000     0.850000000000     0          
O        O      0.522833333333     0.574950000000     0.135650000000     0          
O        O      0.546283333333     0.566900000000     0.047600000000     0          
O        O      0.583333333333     0.625000000000     0.099050000000     0          
O        O      0.500000000000     0.500000000000     0.250000000000     0          
O        O      0.583333333333     0.500000000000     0.250000000000     0          
T        Si     0.564700000000     0.578775000000     0.100000000000     0          
T        Si     0.541683333333     0.719300000000     0.250000000000     0          
O        O      0.643833333333     0.675050000000     0.135650000000     0          
O        O      0.620383333333     0.683100000000     0.047600000000     0          
T        Si     0.601966666667     0.671225000000     0.100000000000     0          
T        Si     0.624983333333     0.530700000000     0.250000000000     0          
O        O      0.606166666667     0.550050000000     0.114350000000     0          
O        O      0.629616666667     0.558100000000     0.202400000000     0          
O        O      0.500000000000     0.500000000000     0.150950000000     0          
O        O      0.583333333333     0.625000000000     0.000000000000     0          
O        O      0.500000000000     0.625000000000     0.000000000000     0          
T        Si     0.648033333333     0.546225000000     0.150000000000     0          
T        Si     0.625016666667     0.655700000000     0.000000000000     0          
O        O      0.560500000000     0.699950000000     0.114350000000     0          
O        O      0.537050000000     0.691900000000     0.202400000000     0          
T        Si     0.518633333333     0.703775000000     0.150000000000     0          
T        Si     0.541650000000     0.594300000000     0.000000000000     0          
O        O      0.643833333333     0.675050000000     0.364350000000     0          
O        O      0.620383333333     0.683100000000     0.452400000000     0          
O        O      0.583333333333     0.625000000000     0.400950000000     0          
T        Si     0.601966666667     0.671225000000     0.400000000000     0          
O        O      0.522833333333     0.574950000000     0.364350000000     0          
O        O      0.546283333333     0.566900000000     0.452400000000     0          
T        Si     0.564700000000     0.578775000000     0.400000000000     0          
O        O      0.560500000000     0.699950000000     0.385650000000     0          
O        O      0.537050000000     0.691900000000     0.297600000000     0          
O        O      0.500000000000     0.500000000000     0.349050000000     0          
T        Si     0.518633333333     0.703775000000     0.350000000000     0          
O        O      0.606166666667     0.550050000000     0.385650000000     0          
O        O      0.629616666667     0.558100000000     0.297600000000     0          
T        Si     0.648033333333     0.546225000000     0.350000000000     0          
O        O      0.522833333333     0.574950000000     0.635650000000     0          
O        O      0.546283333333     0.566900000000     0.547600000000     0          
O        O      0.583333333333     0.625000000000     0.599050000000     0          
O        O      0.500000000000     0.500000000000     0.750000000000     0          
O        O      0.583333333333     0.500000000000     0.750000000000     0          
T        Si     0.564700000000     0.578775000000     0.600000000000     0          
T        Si     0.541683333333     0.719300000000     0.750000000000     0          
O        O      0.643833333333     0.675050000000     0.635650000000     0          
O        O      0.620383333333     0.683100000000     0.547600000000     0          
T        Si     0.601966666667     0.671225000000     0.600000000000     0          
T        Si     0.624983333333     0.530700000000     0.750000000000     0          
O        O      0.606166666667     0.550050000000     0.614350000000     0          
O        O      0.629616666667     0.558100000000     0.702400000000     0          
O        O      0.500000000000     0.500000000000     0.650950000000     0          
O        O      0.583333333333     0.625000000000     0.500000000000     0          
O        O      0.500000000000     0.625000000000     0.500000000000     0          
T        Si     0.648033333333     0.546225000000     0.650000000000     0          
T        Si     0.625016666667     0.655700000000     0.500000000000     0          
O        O      0.560500000000     0.699950000000     0.614350000000     0          
O        O      0.537050000000     0.691900000000     0.702400000000     0          
T        Si     0.518633333333     0.703775000000     0.650000000000     0          
T        Si     0.541650000000     0.594300000000     0.500000000000     0          
O        O      0.643833333333     0.675050000000     0.864350000000     0          
O        O      0.620383333333     0.683100000000     0.952400000000     0          
O        O      0.583333333333     0.625000000000     0.900950000000     0          
T        Si     0.601966666667     0.671225000000     0.900000000000     0          
O        O      0.522833333333     0.574950000000     0.864350000000     0          
O        O      0.546283333333     0.566900000000     0.952400000000     0          
T        Si     0.564700000000     0.578775000000     0.900000000000     0          
O        O      0.560500000000     0.699950000000     0.885650000000     0          
O        O      0.537050000000     0.691900000000     0.797600000000     0          
O        O      0.500000000000     0.500000000000     0.849050000000     0          
T        Si     0.518633333333     0.703775000000     0.850000000000     0          
O        O      0.606166666667     0.550050000000     0.885650000000     0          
O        O      0.629616666667     0.558100000000     0.797600000000     0          
T        Si     0.648033333333     0.546225000000     0.850000000000     0          
O        O      0.522833333333     0.824950000000     0.135650000000     0          
O        O      0.546283333333     0.816900000000     0.047600000000     0          
O        O      0.583333333333     0.875000000000     0.099050000000     0          
O        O      0.500000000000     0.750000000000     0.250000000000     0          
O        O      0.583333333333     0.750000000000     0.250000000000     0          
T        Si     0.564700000000     0.828775000000     0.100000000000     0          
T        Si     0.541683333333     0.969300000000     0.250000000000     0          
O        O      0.643833333333     0.925050000000     0.135650000000     0          
O        O      0.620383333333     0.933100000000     0.047600000000     0          
T        Si     0.601966666667     0.921225000000     0.100000000000     0          
T        Si     0.624983333333     0.780700000000     0.250000000000     0          
O        O      0.606166666667     0.800050000000     0.114350000000     0          
O        O      0.629616666667     0.808100000000     0.202400000000     0          
O        O      0.500000000000     0.750000000000     0.150950000000     0          
O        O      0.583333333333     0.875000000000     0.000000000000     0          
O        O      0.500000000000     0.875000000000     0.000000000000     0          
T        Si     0.648033333333     0.796225000000     0.150000000000     0          
T        Si     0.625016666667     0.905700000000     0.000000000000     0          
O        O      0.560500000000     0.949950000000     0.114350000000     0          
O        O      0.537050000000     0.941900000000     0.202400000000     0          
T        Si     0.518633333333     0.953775000000     0.150000000000     0          
T        Si     0.541650000000     0.844300000000     0.000000000000     0          
O        O      0.643833333333     0.925050000000     0.364350000000     0          
O        O      0.620383333333     0.933100000000     0.452400000000     0          
O        O      0.583333333333     0.875000000000     0.400950000000     0          
T        Si     0.601966666667     0.921225000000     0.400000000000     0          
O        O      0.522833333333     0.824950000000     0.364350000000     0          
O        O      0.546283333333     0.816900000000     0.452400000000     0          
T        Si     0.564700000000     0.828775000000     0.400000000000     0          
O        O      0.560500000000     0.949950000000     0.385650000000     0          
O        O      0.537050000000     0.941900000000     0.297600000000     0          
O        O      0.500000000000     0.750000000000     0.349050000000     0          
T        Si     0.518633333333     0.953775000000     0.350000000000     0          
O        O      0.606166666667     0.800050000000     0.385650000000     0          
O        O      0.629616666667     0.808100000000     0.297600000000     0          
T        Si     0.648033333333     0.796225000000     0.350000000000     0          
O        O      0.522833333333     0.824950000000     0.635650000000     0          
O        O      0.546283333333     0.816900000000     0.547600000000     0          
O        O      0.583333333333     0.875000000000     0.599050000000     0          
O        O      0.500000000000     0.750000000000     0.750000000000     0          
O        O      0.583333333333     0.750000000000     0.750000000000     0          
T        Si     0.564700000000     0.828775000000     0.600000000000     0          
T        Si     0.541683333333     0.969300000000     0.750000000000     0          
O        O      0.643833333333     0.925050000000     0.635650000000     0          
O        O      0.620383333333     0.933100000000     0.547600000000     0          
T        Si     0.601966666667     0.921225000000     0.600000000000     0          
T        Si     0.624983333333     0.780700000000     0.750000000000     0          
O        O      0.606166666667     0.800050000000     0.614350000000     0          
O        O      0.629616666667     0.808100000000     0.702400000000     0          
O        O      0.500000000000     0.750000000000     0.650950000000     0          
O        O      0.583333333333     0.875000000000     0.500000000000     0          
O        O      0.500000000000     0.875000000000     0.500000000000     0          
T        Si     0.648033333333     0.796225000000     0.650000000000     0          
T        Si     0.625016666667     0.905700000000     0.500000000000     0          
O        O      0.560500000000     0.949950000000     0.614350000000     0          
O        O      0.537050000000     0.941900000000     0.702400000000     0          
T        Si     0.518633333333     0.953775000000     0.650000000000     0          
T        Si     0.541650000000     0.844300000000     0.500000000000     0          
O        O      0.643833333333     0.925050000000     0.864350000000     0          
O        O      0.620383333333     0.933100000000     0.952400000000     0          
O        O      0.583333333333     0.875000000000     0.900950000000     0          
T        Si     0.601966666667     0.921225000000     0.900000000000     0          
O        O      0.522833333333     0.824950000000     0.864350000000     0          
O        O      0.546283333333     0.816900000000     0.952400000000     0          
T        Si     0.564700000000     0.828775000000     0.900000000000     0          
O        O      0.560500000000     0.949950000000     0.885650000000     0          
O        O      0.537050000000     0.941900000000     0.797600000000     0          
O        O      0.500000000000     0.750000000000     0.849050000000     0          
T        Si     0.518633333333     0.953775000000     0.850000000000     0          
O        O      0.606166666667     0.800050000000     0.885650000000     0          
O        O      0.629616666667     0.808100000000     0.797600000000     0          
T        Si     0.648033333333     0.796225000000     0.850000000000     0          
O        O      0.689500000000     0.074950000000     0.135650000000     0          
O        O      0.712950000000     0.066900000000     0.047600000000     0          
O        O      0.750000000000     0.125000000000     0.099050000000     0          
O        O      0.666666666667     0.000000000000     0.250000000000     0          
O        O      0.750000000000     0.000000000000     0.250000000000     0          
T        Si     0.731366666667     0.078775000000     0.100000000000     0          
T        Si     0.708350000000     0.219300000000     0.250000000000     0          
O        O      0.810500000000     0.175050000000     0.135650000000     0          
O        O      0.787050000000     0.183100000000     0.047600000000     0          
T        Si     0.768633333333     0.171225000000     0.100000000000     0          
T        Si     0.791650000000     0.030700000000     0.250000000000     0          
O        O      0.772833333333     0.050050000000     0.114350000000     0          
O        O      0.796283333333     0.058100000000     0.202400000000     0          
O        O      0.666666666667     0.000000000000     0.150950000000     0          
O        O      0.750000000000     0.125000000000     0.000000000000     0          
O        O      0.666666666667     0.125000000000     0.000000000000     0          
T        Si     0.814700000000     0.046225000000     0.150000000000     0          
T        Si     0.791683333333     0.155700000000     0.000000000000     0          
O        O      0.727166666667     0.199950000000     0.114350000000     0          
O        O      0.703716666667     0.191900000000     0.202400000000     0          
T        Si     0.685300000000     0.203775000000     0.150000000000     0          
T        Si     0.708316666667     0.094300000000     0.000000000000     0          
O        O      0.810500000000     0.175050000000     0.364350000000     0          
O        O      0.787050000000     0.183100000000     0.452400000000     0          
O        O      0.750000000000     0.125000000000     0.400950000000     0          
T        Si     0.768633333333     0.171225000000     0.400000000000     0          
O        O      0.689500000000     0.074950000000     0.364350000000     0          
O        O      0.712950000000     0.066900000000     0.452400000000     0          
T        Si     0.731366666667     0.078775000000     0.400000000000     0          
O        O      0.727166666667     0.199950000000     0.385650000000     0          
O        O      0.703716666667     0.191900000000     0.297600000000     0          
O        O      0.666666666667     0.000000000000     0.349050000000     0          
T        Si     0.685300000000     0.203775000000     0.350000000000     0          
O        O      0.772833333333     0.050050000000     0.385650000000     0          
O        O      0.796283333333     0.058100000000     0.297600000000     0          
T        Si     0.814700000000     0.046225000000     0.350000000000     0          
O        O      0.689500000000     0.074950000000     0.635650000000     0          
O        O      0.712950000000     0.066900000000     0.547600000000     0          
O        O      0.750000000000     0.125000000000     0.599050000000     0          
O        O      0.666666666667     0.000000000000     0.750000000000     0          
O        O      0.750000000000     0.000000000000     0.750000000000     0          
T        Si     0.731366666667     0.078775000000     0.600000000000     0          
T        Si     0.708350000000     0.219300000000     0.750000000000     0          
O        O      0.810500000000     0.175050000000     0.635650000000     0          
O        O      0.787050000000     0.183100000000     0.547600000000     0          
T        Si     0.768633333333     0.171225000000     0.600000000000     0          
T        Si     0.791650000000     0.030700000000     0.750000000000     0          
O        O      0.772833333333     0.050050000000     0.614350000000     0          
O        O      0.796283333333     0.058100000000     0.702400000000     0          
O        O      0.666666666667     0.000000000000     0.650950000000     0          
O        O      0.750000000000     0.125000000000     0.500000000000     0          
O        O      0.666666666667     0.125000000000     0.500000000000     0          
T        Si     0.814700000000     0.046225000000     0.650000000000     0          
T        Si     0.791683333333     0.155700000000     0.500000000000     0          
O        O      0.727166666667     0.199950000000     0.614350000000     0          
O        O      0.703716666667     0.191900000000     0.702400000000     0          
T        Si     0.685300000000     0.203775000000     0.650000000000     0          
T        Si     0.708316666667     0.094300000000     0.500000000000     0          
O        O      0.810500000000     0.175050000000     0.864350000000     0          
O        O      0.787050000000     0.183100000000     0.952400000000     0          
O        O      0.750000000000     0.125000000000     0.900950000000     0          
T        Si     0.768633333333     0.171225000000     0.900000000000     0          
O        O      0.689500000000     0.074950000000     0.864350000000     0          
O        O      0.712950000000     0.066900000000     0.952400000000     0          
T        Si     0.731366666667     0.078775000000     0.900000000000     0          
O        O      0.727166666667     0.199950000000     0.885650000000     0          
O        O      0.703716666667     0.191900000000     0.797600000000     0          
O        O      0.666666666667     0.000000000000     0.849050000000     0          
T        Si     0.685300000000     0.203775000000     0.850000000000     0          
O        O      0.772833333333     0.050050000000     0.885650000000     0          
O        O      0.796283333333     0.058100000000     0.797600000000     0          
T        Si     0.814700000000     0.046225000000     0.850000000000     0          
O        O      0.689500000000     0.324950000000     0.135650000000     0          
O        O      0.712950000000     0.316900000000     0.047600000000     0          
O        O      0.750000000000     0.375000000000     0.099050000000     0          
O        O      0.666666666667     0.250000000000     0.250000000000     0          
O        O      0.750000000000     0.250000000000     0.250000000000     0          
T        Si     0.731366666667     0.328775000000     0.100000000000     0          
T        Si     0.708350000000     0.469300000000     0.250000000000     0          
O        O      0.810500000000     0.425050000000     0.135650000000     0          
O        O      0.787050000000     0.433100000000     0.047600000000     0          
T        Si     0.768633333333     0.421225000000     0.100000000000     0          
T        Si     0.791650000000     0.280700000000     0.250000000000     0          
O        O      0.772833333333     0.300050000000     0.114350000000     0          
O        O      0.796283333333     0.308100000000     0.202400000000     0          
O        O      0.666666666667     0.250000000000     0.150950000000     0          
O        O      0.750000000000     0.375000000000     0.000000000000     0          
O        O      0.666666666667     0.375000000000     0.000000000000     0          
T        Si     0.814700000000     0.296225000000     0.150000000000     0          
T        Si     0.791683333333     0.405700000000     0.000000000000     0          
O        O      0.727166666667     0.449950000000     0.114350000000     0          
O        O      0.703716666667     0.441900000000     0.202400000000     0          
T        Si     0.685300000000     0.453775000000     0.150000000000     0          
T        Si     0.708316666667     0.344300000000     0.000000000000     0          
O        O      0.810500000000     0.425050000000     0.364350000000     0          
O        O      0.787050000000     0.433100000000     0.452400000000     0          
O        O      0.750000000000     0.375000000000     0.400950000000     0          
T        Si     0.768633333333     0.421225000000     0.400000000000     0          
O        O      0.689500000000     0.324950000000     0.364350000000     0          
O        O      0.712950000000     0.316900000000     0.452400000000     0          
T        Si     0.731366666667     0.328775000000     0.400000000000     0          
O        O      0.727166666667     0.449950000000     0.385650000000     0          
O        O      0.703716666667     0.441900000000     0.297600000000     0          
O        O      0.666666666667     0.250000000000     0.349050000000     0          
T        Si     0.685300000000     0.453775000000     0.350000000000     0          
O        O      0.772833333333     0.300050000000     0.385650000000     0          
O        O      0.796283333333     0.308100000000     0.297600000000     0          
T        Si     0.814700000000     0.296225000000     0.350000000000     0          
O        O      0.689500000000     0.324950000000     0.635650000000     0          
O        O      0.712950000000     0.316900000000     0.547600000000     0          
O        O      0.750000000000     0.375000000000     0.599050000000     0          
O        O      0.666666666667     0.250000000000     0.750000000000     0          
O        O      0.750000000000     0.250000000000     0.750000000000     0          
T        Si     0.731366666667     0.328775000000     0.600000000000     0          
T        Si     0.708350000000     0.469300000000     0.750000000000     0          
O        O      0.810500000000     0.425050000000     0.635650000000     0          
O        O      0.787050000000     0.433100000000     0.547600000000     0          
T        Si     0.768633333333     0.421225000000     0.600000000000     0          
T        Si     0.791650000000     0.280700000000     0.750000000000     0          
O        O      0.772833333333     0.300050000000     0.614350000000     0          
O        O      0.796283333333     0.308100000000     0.702400000000     0          
O        O      0.666666666667     0.250000000000     0.650950000000     0          
O        O      0.750000000000     0.375000000000     0.500000000000     0          
O        O      0.666666666667     0.375000000000     0.500000000000     0          
T        Si     0.814700000000     0.296225000000     0.650000000000     0          
T        Si     0.791683333333     0.405700000000     0.500000000000     0          
O        O      0.727166666667     0.449950000000     0.614350000000     0          
O        O      0.703716666667     0.441900000000     0.702400000000     0          
T        Si     0.685300000000     0.453775000000     0.650000000000     0          
T        Si     0.708316666667     0.344300000000     0.500000000000     0          
O        O      0.810500000000     0.425050000000     0.864350000000     0          
O        O      0.787050000000     0.433100000000     0.952400000000     0          
O        O      0.750000000000     0.375000000000     0.900950000000     0          
T        Si     0.768633333333     0.421225000000     0.900000000000     0          
O        O      0.689500000000     0.324950000000     0.864350000000     0          
O        O      0.712950000000     0.316900000000     0.952400000000     0          
T        Si     0.731366666667     0.328775000000     0.900000000000     0          
O        O      0.727166666667     0.449950000000     0.885650000000     0          
O        O      0.703716666667     0.441900000000     0.797600000000     0          
O        O      0.666666666667     0.250000000000     0.849050000000     0          
T        Si     0.685300000000     0.453775000000     0.850000000000     0          
O        O      0.772833333333     0.300050000000     0.885650000000     0          
O        O      0.796283333333     0.308100000000     0.797600000000     0          
T        Si     0.814700000000     0.296225000000     0.850000000000     0          
O        O      0.689500000000     0.574950000000     0.135650000000     0          
O        O      0.712950000000     0.566900000000     0.047600000000     0          
O        O      0.750000000000     0.625000000000     0.099050000000     0          
O        O      0.666666666667     0.500000000000     0.250000000000     0          
O        O      0.750000000000     0.500000000000     0.250000000000     0          
T        Si     0.731366666667     0.578775000000     0.100000000000     0          
T        Si     0.708350000000     0.719300000000     0.250000000000     0          
O        O      0.810500000000     0.675050000000     0.135650000000     0          
O        O      0.787050000000     0.683100000000     0.047600000000     0          
T        Si     0.768633333333     0.671225000000     0.100000000000     0          
T        Si     0.791650000000     0.530700000000     0.250000000000     0          
O        O      0.772833333333     0.550050000000     0.114350000000     0          
O        O      0.796283333333     0.558100000000     0.202400000000     0          
O        O      0.666666666667     0.500000000000     0.150950000000     0          
O        O      0.750000000000     0.625000000000     0.000000000000     0          
O        O      0.666666666667     0.625000000000     0.000000000000     0          
T        Si     0.814700000000     0.546225000000     0.150000000000     0          
T        Si     0.791683333333     0.655700000000     0.000000000000     0          
O        O      0.727166666667     0.699950000000     0.114350000000     0          
O        O      0.703716666667     0.691900000000     0.202400000000     0          
T        Si     0.685300000000     0.703775000000     0.150000000000     0          
T        Si     0.708316666667     0.594300000000     0.000000000000     0          
O        O      0.810500000000     0.675050000000     0.364350000000     0          
O        O      0.787050000000     0.683100000000     0.452400000000     0          
O        O      0.750000000000     0.625000000000     0.400950000000     0          
T        Si     0.768633333333     0.671225000000     0.400000000000     0          
O        O      0.689500000000     0.574950000000     0.364350000000     0          
O        O      0.712950000000     0.566900000000     0.452400000000     0          
T        Si     0.731366666667     0.578775000000     0.400000000000     0          
O        O      0.727166666667     0.699950000000     0.385650000000     0          
O        O      0.703716666667     0.691900000000     0.297600000000     0          
O        O      0.666666666667     0.500000000000     0.349050000000     0          
T        Si     0.685300000000     0.703775000000     0.350000000000     0          
O        O      0.772833333333     0.550050000000     0.385650000000     0          
O        O      0.796283333333     0.558100000000     0.297600000000     0          
T        Si     0.814700000000     0.546225000000     0.350000000000     0          
O        O      0.689500000000     0.574950000000     0.635650000000     0          
O        O      0.712950000000     0.566900000000     0.547600000000     0          
O        O      0.750000000000     0.625000000000     0.599050000000     0          
O        O      0.666666666667     0.500000000000     0.750000000000     0          
O        O      0.750000000000     0.500000000000     0.750000000000     0          
T        Si     0.731366666667     0.578775000000     0.600000000000     0          
T        Si     0.708350000000     0.719300000000     0.750000000000     0          
O        O      0.810500000000     0.675050000000     0.635650000000     0          
O        O      0.787050000000     0.683100000000     0.547600000000     0          
T        Si     0.768633333333     0.671225000000     0.600000000000     0          
T        Si     0.791650000000     0.530700000000     0.750000000000     0          
O        O      0.772833333333     0.550050000000     0.614350000000     0          
O        O      0.796283333333     0.558100000000     0.702400000000     0          
O        O      0.666666666667     0.500000000000     0.650950000000     0          
O        O      0.750000000000     0.625000000000     0.500000000000     0          
O        O      0.666666666667     0.625000000000     0.500000000000     0          
T        Si     0.814700000000     0.546225000000     0.650000000000     0          
T        Si     0.791683333333     0.655700000000     0.500000000000     0          
O        O      0.727166666667     0.699950000000     0.614350000000     0          
O        O      0.703716666667     0.691900000000     0.702400000000     0          
T        Si     0.685300000000     0.703775000000     0.650000000000     0          
T        Si     0.708316666667     0.594300000000     0.500000000000     0          
O        O      0.810500000000     0.675050000000     0.864350000000     0          
O        O      0.787050000000     0.683100000000     0.952400000000     0          
O        O      0.750000000000     0.625000000000     0.900950000000     0          
T        Si     0.768633333333     0.671225000000     0.900000000000     0          
O        O      0.689500000000     0.574950000000     0.864350000000     0          
O        O      0.712950000000     0.566900000000     0.952400000000     0          
T        Si     0.731366666667     0.578775000000     0.900000000000     0          
O        O      0.727166666667     0.699950000000     0.885650000000     0          
O        O      0.703716666667     0.691900000000     0.797600000000     0          
O        O      0.666666666667     0.500000000000     0.849050000000     0          
T        Si     0.685300000000     0.703775000000     0.850000000000     0          
O        O      0.772833333333     0.550050000000     0.885650000000     0          
O        O      0.796283333333     0.558100000000     0.797600000000     0          
T        Si     0.814700000000     0.546225000000     0.850000000000     0          
O        O      0.689500000000     0.824950000000     0.135650000000     0          
O        O      0.712950000000     0.816900000000     0.047600000000     0          
O        O      0.750000000000     0.875000000000     0.099050000000     0          
O        O      0.666666666667     0.750000000000     0.250000000000     0          
O        O      0.750000000000     0.750000000000     0.250000000000     0          
T        Si     0.731366666667     0.828775000000     0.100000000000     0          
T        Si     0.708350000000     0.969300000000     0.250000000000     0          
O        O      0.810500000000     0.925050000000     0.135650000000     0          
O        O      0.787050000000     0.933100000000     0.047600000000     0          
T        Si     0.768633333333     0.921225000000     0.100000000000     0          
T        Si     0.791650000000     0.780700000000     0.250000000000     0          
O        O      0.772833333333     0.800050000000     0.114350000000     0          
O        O      0.796283333333     0.808100000000     0.202400000000     0          
O        O      0.666666666667     0.750000000000     0.150950000000     0          
O        O      0.750000000000     0.875000000000     0.000000000000     0          
O        O      0.666666666667     0.875000000000     0.000000000000     0          
T        Si     0.814700000000     0.796225000000     0.150000000000     0          
T        Si     0.791683333333     0.905700000000     0.000000000000     0          
O        O      0.727166666667     0.949950000000     0.114350000000     0          
O        O      0.703716666667     0.941900000000     0.202400000000     0          
T        Si     0.685300000000     0.953775000000     0.150000000000     0          
T        Si     0.708316666667     0.844300000000     0.000000000000     0          
O        O      0.810500000000     0.925050000000     0.364350000000     0          
O        O      0.787050000000     0.933100000000     0.452400000000     0          
O        O      0.750000000000     0.875000000000     0.400950000000     0          
T        Si     0.768633333333     0.921225000000     0.400000000000     0          
O        O      0.689500000000     0.824950000000     0.364350000000     0          
O        O      0.712950000000     0.816900000000     0.452400000000     0          
T        Si     0.731366666667     0.828775000000     0.400000000000     0          
O        O      0.727166666667     0.949950000000     0.385650000000     0          
O        O      0.703716666667     0.941900000000     0.297600000000     0          
O        O      0.666666666667     0.750000000000     0.349050000000     0          
T        Si     0.685300000000     0.953775000000     0.350000000000     0          
O        O      0.772833333333     0.800050000000     0.385650000000     0          
O        O      0.796283333333     0.808100000000     0.297600000000     0          
T        Si     0.814700000000     0.796225000000     0.350000000000     0          
O        O      0.689500000000     0.824950000000     0.635650000000     0          
O        O      0.712950000000     0.816900000000     0.547600000000     0          
O        O      0.750000000000     0.875000000000     0.599050000000     0          
O        O      0.666666666667     0.750000000000     0.750000000000     0          
O        O      0.750000000000     0.750000000000     0.750000000000     0          
T        Si     0.731366666667     0.828775000000     0.600000000000     0          
T        Si     0.708350000000     0.969300000000     0.750000000000     0          
O        O      0.810500000000     0.925050000000     0.635650000000     0          
O        O      0.787050000000     0.933100000000     0.547600000000     0          
T        Si     0.768633333333     0.921225000000     0.600000000000     0          
T        Si     0.791650000000     0.780700000000     0.750000000000     0          
O        O      0.772833333333     0.800050000000     0.614350000000     0          
O        O      0.796283333333     0.808100000000     0.702400000000     0          
O        O      0.666666666667     0.750000000000     0.650950000000     0          
O        O      0.750000000000     0.875000000000     0.500000000000     0          
O        O      0.666666666667     0.875000000000     0.500000000000     0          
T        Si     0.814700000000     0.796225000000     0.650000000000     0          
T        Si     0.791683333333     0.905700000000     0.500000000000     0          
O        O      0.727166666667     0.949950000000     0.614350000000     0          
O        O      0.703716666667     0.941900000000     0.702400000000     0          
T        Si     0.685300000000     0.953775000000     0.650000000000     0          
T        Si     0.708316666667     0.844300000000     0.500000000000     0          
O        O      0.810500000000     0.925050000000     0.864350000000     0          
O        O      0.787050000000     0.933100000000     0.952400000000     0          
O        O      0.750000000000     0.875000000000     0.900950000000     0          
T        Si     0.768633333333     0.921225000000     0.900000000000     0          
O        O      0.689500000000     0.824950000000     0.864350000000     0          
O        O      0.712950000000     0.816900000000     0.952400000000     0          
T        Si     0.731366666667     0.828775000000     0.900000000000     0          
O        O      0.727166666667     0.949950000000     0.885650000000     0          
O        O      0.703716666667     0.941900000000     0.797600000000     0          
O        O      0.666666666667     0.750000000000     0.849050000000     0          
T        Si     0.685300000000     0.953775000000     0.850000000000     0          
O        O      0.772833333333     0.800050000000     0.885650000000     0          
O        O      0.796283333333     0.808100000000     0.797600000000     0          
T        Si     0.814700000000     0.796225000000     0.850000000000     0          
O        O      0.856166666667     0.074950000000     0.135650000000     0          
O        O      0.879616666667     0.066900000000     0.047600000000     0          
O        O      0.916666666667     0.125000000000     0.099050000000     0          
O        O      0.833333333333     0.000000000000     0.250000000000     0          
O        O      0.916666666667     0.000000000000     0.250000000000     0          
T        Si     0.898033333333     0.078775000000     0.100000000000     0          
T        Si     0.875016666667     0.219300000000     0.250000000000     0          
O        O      0.977166666667     0.175050000000     0.135650000000     0          
O        O      0.953716666667     0.183100000000     0.047600000000     0          
T        Si     0.935300000000     0.171225000000     0.100000000000     0          
T        Si     0.958316666667     0.030700000000     0.250000000000     0          
O        O      0.939500000000     0.050050000000     0.114350000000     0          
O        O      0.962950000000     0.058100000000     0.202400000000     0          
O        O      0.833333333333     0.000000000000     0.150950000000     0          
O        O      0.916666666667     0.125000000000     0.000000000000     0          
O        O      0.833333333333     0.125000000000     0.000000000000     0          
T        Si     0.981366666667     0.046225000000     0.150000000000     0          
T        Si     0.958350000000     0.155700000000     0.000000000000     0          
O        O      0.893833333333     0.199950000000     0.114350000000     0          
O        O      0.870383333333     0.191900000000     0.202400000000     0          
T        Si     0.851966666667     0.203775000000     0.150000000000     0          
T        Si     0.874983333333     0.094300000000     0.000000000000     0          
O        O      0.977166666667     0.175050000000     0.364350000000     0          
O        O      0.953716666667     0.183100000000     0.452400000000     0          
O        O      0.916666666667     0.125000000000     0.400950000000     0          
T        Si     0.935300000000     0.171225000000     0.400000000000     0          
O        O      0.856166666667     0.074950000000     0.364350000000     0          
O        O      0.879616666667     0.066900000000     0.452400000000     0          
T        Si     0.898033333333     0.078775000000     0.400000000000     0          
O        O      0.893833333333     0.199950000000     0.385650000000     0          
O        O      0.870383333333     0.191900000000     0.297600000000     0          
O        O      0.833333333333     0.000000000000     0.349050000000     0          
T        Si     0.851966666667     0.203775000000     0.350000000000     0          
O        O      0.939500000000     0.050050000000     0.385650000000     0          
O        O      0.962950000000     0.058100000000     0.297600000000     0          
T        Si     0.981366666667     0.046225000000     0.350000000000     0          
O        O      0.856166666667     0.074950000000     0.635650000000     0          
O        O      0.879616666667     0.066900000000     0.547600000000     0          
O        O      0.916666666667     0.125000000000     0.599050000000     0          
O        O      0.833333333333     0.000000000000     0.750000000000     0          
O        O      0.916666666667     0.000000000000     0.750000000000     0          
T        Si     0.898033333333     0.078775000000     0.600000000000     0          
T        Si     0.875016666667     0.219300000000     0.750000000000     0          
O        O      0.977166666667     0.175050000000     0.635650000000     0          
O        O      0.953716666667     0.183100000000     0.547600000000     0          
T        Si     0.935300000000     0.171225000000     0.600000000000     0          
T        Si     0.958316666667     0.030700000000     0.750000000000     0          
O        O      0.939500000000     0.050050000000     0.614350000000     0          
O        O      0.962950000000     0.058100000000     0.702400000000     0          
O        O      0.833333333333     0.000000000000     0.650950000000     0          
O        O      0.916666666667     0.125000000000     0.500000000000     0          
O        O      0.833333333333     0.125000000000     0.500000000000     0          
T        Si     0.981366666667     0.046225000000     0.650000000000     0          
T        Si     0.958350000000     0.155700000000     0.500000000000     0          
O        O      0.893833333333     0.199950000000     0.614350000000     0          
O        O      0.870383333333     0.191900000000     0.702400000000     0          
T        Si     0.851966666667     0.203775000000     0.650000000000     0          
T        Si     0.874983333333     0.094300000000     0.500000000000     0          
O        O      0.977166666667     0.175050000000     0.864350000000     0          
O        O      0.953716666667     0.183100000000     0.952400000000     0          
O        O      0.916666666667     0.125000000000     0.900950000000     0          
T        Si     0.935300000000     0.171225000000     0.900000000000     0          
O        O      0.856166666667     0.074950000000     0.864350000000     0          
O        O      0.879616666667     0.066900000000     0.952400000000     0          
T        Si     0.898033333333     0.078775000000     0.900000000000     0          
O        O      0.893833333333     0.199950000000     0.885650000000     0          
O        O      0.870383333333     0.191900000000     0.797600000000     0          
O        O      0.833333333333     0.000000000000     0.849050000000     0          
T        Si     0.851966666667     0.203775000000     0.850000000000     0          
O        O      0.939500000000     0.050050000000     0.885650000000     0          
O        O      0.962950000000     0.058100000000     0.797600000000     0          
T        Si     0.981366666667     0.046225000000     0.850000000000     0          
O        O      0.856166666667     0.324950000000     0.135650000000     0          
O        O      0.879616666667     0.316900000000     0.047600000000     0          
O        O      0.916666666667     0.375000000000     0.099050000000     0          
O        O      0.833333333333     0.250000000000     0.250000000000     0          
O        O      0.916666666667     0.250000000000     0.250000000000     0          
T        Si     0.898033333333     0.328775000000     0.100000000000     0          
T        Si     0.875016666667     0.469300000000     0.250000000000     0          
O        O      0.977166666667     0.425050000000     0.135650000000     0          
O        O      0.953716666667     0.433100000000     0.047600000000     0          
T        Si     0.935300000000     0.421225000000     0.100000000000     0          
T        Si     0.958316666667     0.280700000000     0.250000000000     0          
O        O      0.939500000000     0.300050000000     0.114350000000     0          
O        O      0.962950000000     0.308100000000     0.202400000000     0          
O        O      0.833333333333     0.250000000000     0.150950000000     0          
O        O      0.916666666667     0.375000000000     0.000000000000     0          
O        O      0.833333333333     0.375000000000     0.000000000000     0          
T        Si     0.981366666667     0.296225000000     0.150000000000     0          
T        Si     0.958350000000     0.405700000000     0.000000000000     0          
O        O      0.893833333333     0.449950000000     0.114350000000     0          
O        O      0.870383333333     0.441900000000     0.202400000000     0          
T        Si     0.851966666667     0.453775000000     0.150000000000     0          
T        Si     0.874983333333     0.344300000000     0.000000000000     0          
O        O      0.977166666667     0.425050000000     0.364350000000     0          
O        O      0.953716666667     0.433100000000     0.452400000000     0          
O        O      0.916666666667     0.375000000000     0.400950000000     0          
T        Si     0.935300000000     0.421225000000     0.400000000000     0          
O        O      0.856166666667     0.324950000000     0.364350000000     0          
O        O      0.879616666667     0.316900000000     0.452400000000     0          
T        Si     0.898033333333     0.328775000000     0.400000000000     0          
O        O      0.893833333333     0.449950000000     0.385650000000     0          
O        O      0.870383333333     0.441900000000     0.297600000000     0          
O        O      0.833333333333     0.250000000000     0.349050000000     0          
T        Si     0.851966666667     0.453775000000     0.350000000000     0          
O        O      0.939500000000     0.300050000000     0.385650000000     0          
O        O      0.962950000000     0.308100000000     0.297600000000     0          
T        Si     0.981366666667     0.296225000000     0.350000000000     0          
O        O      0.856166666667     0.324950000000     0.635650000000     0          
O        O      0.879616666667     0.316900000000     0.547600000000     0          
O        O      0.916666666667     0.375000000000     0.599050000000     0          
O        O      0.833333333333     0.250000000000     0.750000000000     0          
O        O      0.916666666667     0.250000000000     0.750000000000     0          
T        Si     0.898033333333     0.328775000000     0.600000000000     0          
T        Si     0.875016666667     0.469300000000     0.750000000000     0          
O        O      0.977166666667     0.425050000000     0.635650000000     0          
O        O      0.953716666667     0.433100000000     0.547600000000     0          
T        Si     0.935300000000     0.421225000000     0.600000000000     0          
T        Si     0.958316666667     0.280700000000     0.750000000000     0          
O        O      0.939500000000     0.300050000000     0.614350000000     0          
O        O      0.962950000000     0.308100000000     0.702400000000     0          
O        O      0.833333333333     0.250000000000     0.650950000000     0          
O        O      0.916666666667     0.375000000000     0.500000000000     0          
O        O      0.833333333333     0.375000000000     0.500000000000     0          
T        Si     0.981366666667     0.296225000000     0.650000000000     0          
T        Si     0.958350000000     0.405700000000     0.500000000000     0          
O        O      0.893833333333     0.449950000000     0.614350000000     0          
O        O      0.870383333333     0.441900000000     0.702400000000     0          
T        Si     0.851966666667     0.453775000000     0.650000000000     0          
T        Si     0.874983333333     0.344300000000     0.500000000000     0          
O        O      0.977166666667     0.425050000000     0.864350000000     0          
O        O      0.953716666667     0.433100000000     0.952400000000     0          
O        O      0.916666666667     0.375000000000     0.900950000000     0          
T        Si     0.935300000000     0.421225000000     0.900000000000     0          
O        O      0.856166666667     0.324950000000     0.864350000000     0          
O        O      0.879616666667     0.316900000000     0.952400000000     0          
T        Si     0.898033333333     0.328775000000     0.900000000000     0          
O        O      0.893833333333     0.449950000000     0.885650000000     0          
O        O      0.870383333333     0.441900000000     0.797600000000     0          
O        O      0.833333333333     0.250000000000     0.849050000000     0          
T        Si     0.851966666667     0.453775000000     0.850000000000     0          
O        O      0.939500000000     0.300050000000     0.885650000000     0          
O        O      0.962950000000     0.308100000000     0.797600000000     0          
T        Si     0.981366666667     0.296225000000     0.850000000000     0          
O        O      0.856166666667     0.574950000000     0.135650000000     0          
O        O      0.879616666667     0.566900000000     0.047600000000     0          
O        O      0.916666666667     0.625000000000     0.099050000000     0          
O        O      0.833333333333     0.500000000000     0.250000000000     0          
O        O      0.916666666667     0.500000000000     0.250000000000     0          
T        Si     0.898033333333     0.578775000000     0.100000000000     0          
T        Si     0.875016666667     0.719300000000     0.250000000000     0          
O        O      0.977166666667     0.675050000000     0.135650000000     0          
O        O      0.953716666667     0.683100000000     0.047600000000     0          
T        Si     0.935300000000     0.671225000000     0.100000000000     0          
T        Si     0.958316666667     0.530700000000     0.250000000000     0          
O        O      0.939500000000     0.550050000000     0.114350000000     0          
O        O      0.962950000000     0.558100000000     0.202400000000     0          
O        O      0.833333333333     0.500000000000     0.150950000000     0          
O        O      0.916666666667     0.625000000000     0.000000000000     0          
O        O      0.833333333333     0.625000000000     0.000000000000     0          
T        Si     0.981366666667     0.546225000000     0.150000000000     0          
T        Si     0.958350000000     0.655700000000     0.000000000000     0          
O        O      0.893833333333     0.699950000000     0.114350000000     0          
O        O      0.870383333333     0.691900000000     0.202400000000     0          
T        Si     0.851966666667     0.703775000000     0.150000000000     0          
T        Si     0.874983333333     0.594300000000     0.000000000000     0          
O        O      0.977166666667     0.675050000000     0.364350000000     0          
O        O      0.953716666667     0.683100000000     0.452400000000     0          
O        O      0.916666666667     0.625000000000     0.400950000000     0          
T        Si     0.935300000000     0.671225000000     0.400000000000     0          
O        O      0.856166666667     0.574950000000     0.364350000000     0          
O        O      0.879616666667     0.566900000000     0.452400000000     0          
T        Si     0.898033333333     0.578775000000     0.400000000000     0          
O        O      0.893833333333     0.699950000000     0.385650000000     0          
O        O      0.870383333333     0.691900000000     0.297600000000     0          
O        O      0.833333333333     0.500000000000     0.349050000000     0          
T        Si     0.851966666667     0.703775000000     0.350000000000     0          
O        O      0.939500000000     0.550050000000     0.385650000000     0          
O        O      0.962950000000     0.558100000000     0.297600000000     0          
T        Si     0.981366666667     0.546225000000     0.350000000000     0          
O        O      0.856166666667     0.574950000000     0.635650000000     0          
O        O      0.879616666667     0.566900000000     0.547600000000     0          
O        O      0.916666666667     0.625000000000     0.599050000000     0          
O        O      0.833333333333     0.500000000000     0.750000000000     0          
O        O      0.916666666667     0.500000000000     0.750000000000     0          
T        Si     0.898033333333     0.578775000000     0.600000000000     0          
T        Si     0.875016666667     0.719300000000     0.750000000000     0          
O        O      0.977166666667     0.675050000000     0.635650000000     0          
O        O      0.953716666667     0.683100000000     0.547600000000     0          
T        Si     0.935300000000     0.671225000000     0.600000000000     0          
T        Si     0.958316666667     0.530700000000     0.750000000000     0          
O        O      0.939500000000     0.550050000000     0.614350000000     0          
O        O      0.962950000000     0.558100000000     0.702400000000     0          
O        O      0.833333333333     0.500000000000     0.650950000000     0          
O        O      0.916666666667     0.625000000000     0.500000000000     0          
O        O      0.833333333333     0.625000000000     0.500000000000     0          
T        Si     0.981366666667     0.546225000000     0.650000000000     0          
T        Si     0.958350000000     0.655700000000     0.500000000000     0          
O        O      0.893833333333     0.699950000000     0.614350000000     0          
O        O      0.870383333333     0.691900000000     0.702400000000     0          
T        Si     0.851966666667     0.703775000000     0.650000000000     0          
T        Si     0.874983333333     0.594300000000     0.500000000000     0          
O        O      0.977166666667     0.675050000000     0.864350000000     0          
O        O      0.953716666667     0.683100000000     0.952400000000     0          
O        O      0.916666666667     0.625000000000     0.900950000000     0          
T        Si     0.935300000000     0.671225000000     0.900000000000     0          
O        O      0.856166666667     0.574950000000     0.864350000000     0          
O        O      0.879616666667     0.566900000000     0.952400000000     0          
T        Si     0.898033333333     0.578775000000     0.900000000000     0          
O        O      0.893833333333     0.699950000000     0.885650000000     0          
O        O      0.870383333333     0.691900000000     0.797600000000     0          
O        O      0.833333333333     0.500000000000     0.849050000000     0          
T        Si     0.851966666667     0.703775000000     0.850000000000     0          
O        O      0.939500000000     0.550050000000     0.885650000000     0          
O        O      0.962950000000     0.558100000000     0.797600000000     0          
T        Si     0.981366666667     0.546225000000     0.850000000000     0          
O        O      0.856166666667     0.824950000000     0.135650000000     0          
O        O      0.879616666667     0.816900000000     0.047600000000     0          
O        O      0.916666666667     0.875000000000     0.099050000000     0          
O        O      0.833333333333     0.750000000000     0.250000000000     0          
O        O      0.916666666667     0.750000000000     0.250000000000     0          
T        Si     0.898033333333     0.828775000000     0.100000000000     0          
T        Si     0.875016666667     0.969300000000     0.250000000000     0          
O        O      0.977166666667     0.925050000000     0.135650000000     0          
O        O      0.953716666667     0.933100000000     0.047600000000     0          
T        Si     0.935300000000     0.921225000000     0.100000000000     0          
T        Si     0.958316666667     0.780700000000     0.250000000000     0          
O        O      0.939500000000     0.800050000000     0.114350000000     0          
O        O      0.962950000000     0.808100000000     0.202400000000     0          
O        O      0.833333333333     0.750000000000     0.150950000000     0          
O        O      0.916666666667     0.875000000000     0.000000000000     0          
O        O      0.833333333333     0.875000000000     0.000000000000     0          
T        Si     0.981366666667     0.796225000000     0.150000000000     0          
T        Si     0.958350000000     0.905700000000     0.000000000000     0          
O        O      0.893833333333     0.949950000000     0.114350000000     0          
O        O      0.870383333333     0.941900000000     0.202400000000     0          
T        Si     0.851966666667     0.953775000000     0.150000000000     0          
T        Si     0.874983333333     0.844300000000     0.000000000000     0          
O        O      0.977166666667     0.925050000000     0.364350000000     0          
O        O      0.953716666667     0.933100000000     0.452400000000     0          
O        O      0.916666666667     0.875000000000     0.400950000000     0          
T        Si     0.935300000000     0.921225000000     0.400000000000     0          
O        O      0.856166666667     0.824950000000     0.364350000000     0          
O        O      0.879616666667     0.816900000000     0.452400000000     0          
T        Si     0.898033333333     0.828775000000     0.400000000000     0          
O        O      0.893833333333     0.949950000000     0.385650000000     0          
O        O      0.870383333333     0.941900000000     0.297600000000     0          
O        O      0.833333333333     0.750000000000     0.349050000000     0          
T        Si     0.851966666667     0.953775000000     0.350000000000     0          
O        O      0.939500000000     0.800050000000     0.385650000000     0          
O        O      0.962950000000     0.808100000000     0.297600000000     0          
T        Si     0.981366666667     0.796225000000     0.350000000000     0          
O        O      0.856166666667     0.824950000000     0.635650000000     0          
O        O      0.879616666667     0.816900000000     0.547600000000     0          
O        O      0.916666666667     0.875000000000     0.599050000000     0          
O        O      0.833333333333     0.750000000000     0.750000000000     0          
O        O      0.916666666667     0.750000000000     0.750000000000     0          
T        Si     0.898033333333     0.828775000000     0.600000000000     0          
T        Si     0.875016666667     0.969300000000     0.750000000000     0          
O        O      0.977166666667     0.925050000000     0.635650000000     0          
O        O      0.953716666667     0.933100000000     0.547600000000     0          
T        Si     0.935300000000     0.921225000000     0.600000000000     0          
T        Si     0.958316666667     0.780700000000     0.750000000000     0          
O        O      0.939500000000     0.800050000000     0.614350000000     0          
O        O      0.962950000000     0.808100000000     0.702400000000     0          
O        O      0.833333333333     0.750000000000     0.650950000000     0          
O        O      0.916666666667     0.875000000000     0.500000000000     0          
O        O      0.833333333333     0.875000000000     0.500000000000     0          
T        Si     0.981366666667     0.796225000000     0.650000000000     0          
T        Si     0.958350000000     0.905700000000     0.500000000000     0          
O        O      0.893833333333     0.949950000000     0.614350000000     0          
O        O      0.870383333333     0.941900000000     0.702400000000     0          
T        Si     0.851966666667     0.953775000000     0.650000000000     0          
T        Si     0.874983333333     0.844300000000     0.500000000000     0          
O        O      0.977166666667     0.925050000000     0.864350000000     0          
O        O      0.953716666667     0.933100000000     0.952400000000     0          
O        O      0.916666666667     0.875000000000     0.900950000000     0          
T        Si     0.935300000000     0.921225000000     0.900000000000     0          
O        O      0.856166666667     0.824950000000     0.864350000000     0          
O        O      0.879616666667     0.816900000000     0.952400000000     0          
T        Si     0.898033333333     0.828775000000     0.900000000000     0          
O        O      0.893833333333     0.949950000000     0.885650000000     0          
O        O      0.870383333333     0.941900000000     0.797600000000     0          
O        O      0.833333333333     0.750000000000     0.849050000000     0          
T        Si     0.851966666667     0.953775000000     0.850000000000     0          
O        O      0.939500000000     0.800050000000     0.885650000000     0          
O        O      0.962950000000     0.808100000000     0.797600000000     0          
T        Si     0.981366666667     0.796225000000     0.850000000000     0          


