data_zeolite

_audit_creation_method RASPA-1.0
_audit_creation_date 2021-6-7
_audit_author_name ''

_cell_length_a    13.2261
_cell_length_b    13.2261
_cell_length_c    12.5838
_cell_angle_alpha 90
_cell_angle_beta  90
_cell_angle_gamma 120
_cell_volume      51471.9

_symmetry_cell_setting          trigonal
_symmetry_space_group_name_Hall 'P 1'
_symmetry_space_group_name_H-M  'P 1'
_symmetry_Int_Tables_number     1

_symmetry_equiv_pos_as_xyz 'x,y,z'

loop_
_atom_site_label
_atom_site_type_symbol
_atom_site_fract_x
_atom_site_fract_y
_atom_site_fract_z
_atom_site_charge
T        Si     0.144966666667     0.033366666667     0.058333333333     0          
T        Si     0.145400000000     0.033266666667     0.138333333333     0          
T        Si     0.000000000000     0.079233333333     0.000000000000     0          
T        Si     0.299966666667     0.111600000000     0.058333333333     0          
T        Si     0.300066666667     0.112133333333     0.138333333333     0          
T        Si     0.254100000000     0.254100000000     0.000000000000     0          
T        Si     0.221733333333     0.188366666667     0.058333333333     0          
T        Si     0.221200000000     0.187933333333     0.138333333333     0          
T        Si     0.079233333333     0.000000000000     0.000000000000     0          
T        Si     0.033366666667     0.144966666667     0.275000000000     0          
T        Si     0.033266666667     0.145400000000     0.195000000000     0          
T        Si     0.188366666667     0.221733333333     0.275000000000     0          
T        Si     0.187933333333     0.221200000000     0.195000000000     0          
T        Si     0.111600000000     0.299966666667     0.275000000000     0          
T        Si     0.112133333333     0.300066666667     0.195000000000     0          
T        Si     0.188366666667     0.299966666667     0.275000000000     0          
T        Si     0.187933333333     0.300066666667     0.195000000000     0          
T        Si     0.000000000000     0.254100000000     0.000000000000     0          
T        Si     0.033366666667     0.221733333333     0.275000000000     0          
T        Si     0.033266666667     0.221200000000     0.195000000000     0          
T        Si     0.079233333333     0.079233333333     0.000000000000     0          
T        Si     0.111600000000     0.144966666667     0.275000000000     0          
T        Si     0.112133333333     0.145400000000     0.195000000000     0          
T        Si     0.254100000000     0.000000000000     0.000000000000     0          
T        Si     0.299966666667     0.188366666667     0.058333333333     0          
T        Si     0.300066666667     0.187933333333     0.138333333333     0          
T        Si     0.144966666667     0.111600000000     0.058333333333     0          
T        Si     0.145400000000     0.112133333333     0.138333333333     0          
T        Si     0.221733333333     0.033366666667     0.058333333333     0          
T        Si     0.221200000000     0.033266666667     0.138333333333     0          
T        Si     0.144966666667     0.033366666667     0.391666666667     0          
T        Si     0.145400000000     0.033266666667     0.471666666667     0          
T        Si     0.000000000000     0.079233333333     0.333333333333     0          
T        Si     0.299966666667     0.111600000000     0.391666666667     0          
T        Si     0.300066666667     0.112133333333     0.471666666667     0          
T        Si     0.254100000000     0.254100000000     0.333333333333     0          
T        Si     0.221733333333     0.188366666667     0.391666666667     0          
T        Si     0.221200000000     0.187933333333     0.471666666667     0          
T        Si     0.079233333333     0.000000000000     0.333333333333     0          
T        Si     0.033366666667     0.144966666667     0.608333333333     0          
T        Si     0.033266666667     0.145400000000     0.528333333333     0          
T        Si     0.188366666667     0.221733333333     0.608333333333     0          
T        Si     0.187933333333     0.221200000000     0.528333333333     0          
T        Si     0.111600000000     0.299966666667     0.608333333333     0          
T        Si     0.112133333333     0.300066666667     0.528333333333     0          
T        Si     0.188366666667     0.299966666667     0.608333333333     0          
T        Si     0.187933333333     0.300066666667     0.528333333333     0          
T        Si     0.000000000000     0.254100000000     0.333333333333     0          
T        Si     0.033366666667     0.221733333333     0.608333333333     0          
T        Si     0.033266666667     0.221200000000     0.528333333333     0          
T        Si     0.079233333333     0.079233333333     0.333333333333     0          
T        Si     0.111600000000     0.144966666667     0.608333333333     0          
T        Si     0.112133333333     0.145400000000     0.528333333333     0          
T        Si     0.254100000000     0.000000000000     0.333333333333     0          
T        Si     0.299966666667     0.188366666667     0.391666666667     0          
T        Si     0.300066666667     0.187933333333     0.471666666667     0          
T        Si     0.144966666667     0.111600000000     0.391666666667     0          
T        Si     0.145400000000     0.112133333333     0.471666666667     0          
T        Si     0.221733333333     0.033366666667     0.391666666667     0          
T        Si     0.221200000000     0.033266666667     0.471666666667     0          
T        Si     0.144966666667     0.033366666667     0.725000000000     0          
T        Si     0.145400000000     0.033266666667     0.805000000000     0          
T        Si     0.000000000000     0.079233333333     0.666666666667     0          
T        Si     0.299966666667     0.111600000000     0.725000000000     0          
T        Si     0.300066666667     0.112133333333     0.805000000000     0          
T        Si     0.254100000000     0.254100000000     0.666666666667     0          
T        Si     0.221733333333     0.188366666667     0.725000000000     0          
T        Si     0.221200000000     0.187933333333     0.805000000000     0          
T        Si     0.079233333333     0.000000000000     0.666666666667     0          
T        Si     0.033366666667     0.144966666667     0.941666666667     0          
T        Si     0.033266666667     0.145400000000     0.861666666667     0          
T        Si     0.188366666667     0.221733333333     0.941666666667     0          
T        Si     0.187933333333     0.221200000000     0.861666666667     0          
T        Si     0.111600000000     0.299966666667     0.941666666667     0          
T        Si     0.112133333333     0.300066666667     0.861666666667     0          
T        Si     0.188366666667     0.299966666667     0.941666666667     0          
T        Si     0.187933333333     0.300066666667     0.861666666667     0          
T        Si     0.000000000000     0.254100000000     0.666666666667     0          
T        Si     0.033366666667     0.221733333333     0.941666666667     0          
T        Si     0.033266666667     0.221200000000     0.861666666667     0          
T        Si     0.079233333333     0.079233333333     0.666666666667     0          
T        Si     0.111600000000     0.144966666667     0.941666666667     0          
T        Si     0.112133333333     0.145400000000     0.861666666667     0          
T        Si     0.254100000000     0.000000000000     0.666666666667     0          
T        Si     0.299966666667     0.188366666667     0.725000000000     0          
T        Si     0.300066666667     0.187933333333     0.805000000000     0          
T        Si     0.144966666667     0.111600000000     0.725000000000     0          
T        Si     0.145400000000     0.112133333333     0.805000000000     0          
T        Si     0.221733333333     0.033366666667     0.725000000000     0          
T        Si     0.221200000000     0.033266666667     0.805000000000     0          
T        Si     0.144966666667     0.366700000000     0.058333333333     0          
T        Si     0.145400000000     0.366600000000     0.138333333333     0          
T        Si     0.000000000000     0.412566666667     0.000000000000     0          
T        Si     0.299966666667     0.444933333333     0.058333333333     0          
T        Si     0.300066666667     0.445466666667     0.138333333333     0          
T        Si     0.254100000000     0.587433333333     0.000000000000     0          
T        Si     0.221733333333     0.521700000000     0.058333333333     0          
T        Si     0.221200000000     0.521266666667     0.138333333333     0          
T        Si     0.079233333333     0.333333333333     0.000000000000     0          
T        Si     0.033366666667     0.478300000000     0.275000000000     0          
T        Si     0.033266666667     0.478733333333     0.195000000000     0          
T        Si     0.188366666667     0.555066666667     0.275000000000     0          
T        Si     0.187933333333     0.554533333333     0.195000000000     0          
T        Si     0.111600000000     0.633300000000     0.275000000000     0          
T        Si     0.112133333333     0.633400000000     0.195000000000     0          
T        Si     0.188366666667     0.633300000000     0.275000000000     0          
T        Si     0.187933333333     0.633400000000     0.195000000000     0          
T        Si     0.000000000000     0.587433333333     0.000000000000     0          
T        Si     0.033366666667     0.555066666667     0.275000000000     0          
T        Si     0.033266666667     0.554533333333     0.195000000000     0          
T        Si     0.079233333333     0.412566666667     0.000000000000     0          
T        Si     0.111600000000     0.478300000000     0.275000000000     0          
T        Si     0.112133333333     0.478733333333     0.195000000000     0          
T        Si     0.254100000000     0.333333333333     0.000000000000     0          
T        Si     0.299966666667     0.521700000000     0.058333333333     0          
T        Si     0.300066666667     0.521266666667     0.138333333333     0          
T        Si     0.144966666667     0.444933333333     0.058333333333     0          
T        Si     0.145400000000     0.445466666667     0.138333333333     0          
T        Si     0.221733333333     0.366700000000     0.058333333333     0          
T        Si     0.221200000000     0.366600000000     0.138333333333     0          
T        Si     0.144966666667     0.366700000000     0.391666666667     0          
T        Si     0.145400000000     0.366600000000     0.471666666667     0          
T        Si     0.000000000000     0.412566666667     0.333333333333     0          
T        Si     0.299966666667     0.444933333333     0.391666666667     0          
T        Si     0.300066666667     0.445466666667     0.471666666667     0          
T        Si     0.254100000000     0.587433333333     0.333333333333     0          
T        Si     0.221733333333     0.521700000000     0.391666666667     0          
T        Si     0.221200000000     0.521266666667     0.471666666667     0          
T        Si     0.079233333333     0.333333333333     0.333333333333     0          
T        Si     0.033366666667     0.478300000000     0.608333333333     0          
T        Si     0.033266666667     0.478733333333     0.528333333333     0          
T        Si     0.188366666667     0.555066666667     0.608333333333     0          
T        Si     0.187933333333     0.554533333333     0.528333333333     0          
T        Si     0.111600000000     0.633300000000     0.608333333333     0          
T        Si     0.112133333333     0.633400000000     0.528333333333     0          
T        Si     0.188366666667     0.633300000000     0.608333333333     0          
T        Si     0.187933333333     0.633400000000     0.528333333333     0          
T        Si     0.000000000000     0.587433333333     0.333333333333     0          
T        Si     0.033366666667     0.555066666667     0.608333333333     0          
T        Si     0.033266666667     0.554533333333     0.528333333333     0          
T        Si     0.079233333333     0.412566666667     0.333333333333     0          
T        Si     0.111600000000     0.478300000000     0.608333333333     0          
T        Si     0.112133333333     0.478733333333     0.528333333333     0          
T        Si     0.254100000000     0.333333333333     0.333333333333     0          
T        Si     0.299966666667     0.521700000000     0.391666666667     0          
T        Si     0.300066666667     0.521266666667     0.471666666667     0          
T        Si     0.144966666667     0.444933333333     0.391666666667     0          
T        Si     0.145400000000     0.445466666667     0.471666666667     0          
T        Si     0.221733333333     0.366700000000     0.391666666667     0          
T        Si     0.221200000000     0.366600000000     0.471666666667     0          
T        Si     0.144966666667     0.366700000000     0.725000000000     0          
T        Si     0.145400000000     0.366600000000     0.805000000000     0          
T        Si     0.000000000000     0.412566666667     0.666666666667     0          
T        Si     0.299966666667     0.444933333333     0.725000000000     0          
T        Si     0.300066666667     0.445466666667     0.805000000000     0          
T        Si     0.254100000000     0.587433333333     0.666666666667     0          
T        Si     0.221733333333     0.521700000000     0.725000000000     0          
T        Si     0.221200000000     0.521266666667     0.805000000000     0          
T        Si     0.079233333333     0.333333333333     0.666666666667     0          
T        Si     0.033366666667     0.478300000000     0.941666666667     0          
T        Si     0.033266666667     0.478733333333     0.861666666667     0          
T        Si     0.188366666667     0.555066666667     0.941666666667     0          
T        Si     0.187933333333     0.554533333333     0.861666666667     0          
T        Si     0.111600000000     0.633300000000     0.941666666667     0          
T        Si     0.112133333333     0.633400000000     0.861666666667     0          
T        Si     0.188366666667     0.633300000000     0.941666666667     0          
T        Si     0.187933333333     0.633400000000     0.861666666667     0          
T        Si     0.000000000000     0.587433333333     0.666666666667     0          
T        Si     0.033366666667     0.555066666667     0.941666666667     0          
T        Si     0.033266666667     0.554533333333     0.861666666667     0          
T        Si     0.079233333333     0.412566666667     0.666666666667     0          
T        Si     0.111600000000     0.478300000000     0.941666666667     0          
T        Si     0.112133333333     0.478733333333     0.861666666667     0          
T        Si     0.254100000000     0.333333333333     0.666666666667     0          
T        Si     0.299966666667     0.521700000000     0.725000000000     0          
T        Si     0.300066666667     0.521266666667     0.805000000000     0          
T        Si     0.144966666667     0.444933333333     0.725000000000     0          
T        Si     0.145400000000     0.445466666667     0.805000000000     0          
T        Si     0.221733333333     0.366700000000     0.725000000000     0          
T        Si     0.221200000000     0.366600000000     0.805000000000     0          
T        Si     0.144966666667     0.700033333333     0.058333333333     0          
T        Si     0.145400000000     0.699933333333     0.138333333333     0          
T        Si     0.000000000000     0.745900000000     0.000000000000     0          
T        Si     0.299966666667     0.778266666667     0.058333333333     0          
T        Si     0.300066666667     0.778800000000     0.138333333333     0          
T        Si     0.254100000000     0.920766666667     0.000000000000     0          
T        Si     0.221733333333     0.855033333333     0.058333333333     0          
T        Si     0.221200000000     0.854600000000     0.138333333333     0          
T        Si     0.079233333333     0.666666666667     0.000000000000     0          
T        Si     0.033366666667     0.811633333333     0.275000000000     0          
T        Si     0.033266666667     0.812066666667     0.195000000000     0          
T        Si     0.188366666667     0.888400000000     0.275000000000     0          
T        Si     0.187933333333     0.887866666667     0.195000000000     0          
T        Si     0.111600000000     0.966633333333     0.275000000000     0          
T        Si     0.112133333333     0.966733333333     0.195000000000     0          
T        Si     0.188366666667     0.966633333333     0.275000000000     0          
T        Si     0.187933333333     0.966733333333     0.195000000000     0          
T        Si     0.000000000000     0.920766666667     0.000000000000     0          
T        Si     0.033366666667     0.888400000000     0.275000000000     0          
T        Si     0.033266666667     0.887866666667     0.195000000000     0          
T        Si     0.079233333333     0.745900000000     0.000000000000     0          
T        Si     0.111600000000     0.811633333333     0.275000000000     0          
T        Si     0.112133333333     0.812066666667     0.195000000000     0          
T        Si     0.254100000000     0.666666666667     0.000000000000     0          
T        Si     0.299966666667     0.855033333333     0.058333333333     0          
T        Si     0.300066666667     0.854600000000     0.138333333333     0          
T        Si     0.144966666667     0.778266666667     0.058333333333     0          
T        Si     0.145400000000     0.778800000000     0.138333333333     0          
T        Si     0.221733333333     0.700033333333     0.058333333333     0          
T        Si     0.221200000000     0.699933333333     0.138333333333     0          
T        Si     0.144966666667     0.700033333333     0.391666666667     0          
T        Si     0.145400000000     0.699933333333     0.471666666667     0          
T        Si     0.000000000000     0.745900000000     0.333333333333     0          
T        Si     0.299966666667     0.778266666667     0.391666666667     0          
T        Si     0.300066666667     0.778800000000     0.471666666667     0          
T        Si     0.254100000000     0.920766666667     0.333333333333     0          
T        Si     0.221733333333     0.855033333333     0.391666666667     0          
T        Si     0.221200000000     0.854600000000     0.471666666667     0          
T        Si     0.079233333333     0.666666666667     0.333333333333     0          
T        Si     0.033366666667     0.811633333333     0.608333333333     0          
T        Si     0.033266666667     0.812066666667     0.528333333333     0          
T        Si     0.188366666667     0.888400000000     0.608333333333     0          
T        Si     0.187933333333     0.887866666667     0.528333333333     0          
T        Si     0.111600000000     0.966633333333     0.608333333333     0          
T        Si     0.112133333333     0.966733333333     0.528333333333     0          
T        Si     0.188366666667     0.966633333333     0.608333333333     0          
T        Si     0.187933333333     0.966733333333     0.528333333333     0          
T        Si     0.000000000000     0.920766666667     0.333333333333     0          
T        Si     0.033366666667     0.888400000000     0.608333333333     0          
T        Si     0.033266666667     0.887866666667     0.528333333333     0          
T        Si     0.079233333333     0.745900000000     0.333333333333     0          
T        Si     0.111600000000     0.811633333333     0.608333333333     0          
T        Si     0.112133333333     0.812066666667     0.528333333333     0          
T        Si     0.254100000000     0.666666666667     0.333333333333     0          
T        Si     0.299966666667     0.855033333333     0.391666666667     0          
T        Si     0.300066666667     0.854600000000     0.471666666667     0          
T        Si     0.144966666667     0.778266666667     0.391666666667     0          
T        Si     0.145400000000     0.778800000000     0.471666666667     0          
T        Si     0.221733333333     0.700033333333     0.391666666667     0          
T        Si     0.221200000000     0.699933333333     0.471666666667     0          
T        Si     0.144966666667     0.700033333333     0.725000000000     0          
T        Si     0.145400000000     0.699933333333     0.805000000000     0          
T        Si     0.000000000000     0.745900000000     0.666666666667     0          
T        Si     0.299966666667     0.778266666667     0.725000000000     0          
T        Si     0.300066666667     0.778800000000     0.805000000000     0          
T        Si     0.254100000000     0.920766666667     0.666666666667     0          
T        Si     0.221733333333     0.855033333333     0.725000000000     0          
T        Si     0.221200000000     0.854600000000     0.805000000000     0          
T        Si     0.079233333333     0.666666666667     0.666666666667     0          
T        Si     0.033366666667     0.811633333333     0.941666666667     0          
T        Si     0.033266666667     0.812066666667     0.861666666667     0          
T        Si     0.188366666667     0.888400000000     0.941666666667     0          
T        Si     0.187933333333     0.887866666667     0.861666666667     0          
T        Si     0.111600000000     0.966633333333     0.941666666667     0          
T        Si     0.112133333333     0.966733333333     0.861666666667     0          
T        Si     0.188366666667     0.966633333333     0.941666666667     0          
T        Si     0.187933333333     0.966733333333     0.861666666667     0          
T        Si     0.000000000000     0.920766666667     0.666666666667     0          
T        Si     0.033366666667     0.888400000000     0.941666666667     0          
T        Si     0.033266666667     0.887866666667     0.861666666667     0          
T        Si     0.079233333333     0.745900000000     0.666666666667     0          
T        Si     0.111600000000     0.811633333333     0.941666666667     0          
T        Si     0.112133333333     0.812066666667     0.861666666667     0          
T        Si     0.254100000000     0.666666666667     0.666666666667     0          
T        Si     0.299966666667     0.855033333333     0.725000000000     0          
T        Si     0.300066666667     0.854600000000     0.805000000000     0          
T        Si     0.144966666667     0.778266666667     0.725000000000     0          
T        Si     0.145400000000     0.778800000000     0.805000000000     0          
T        Si     0.221733333333     0.700033333333     0.725000000000     0          
T        Si     0.221200000000     0.699933333333     0.805000000000     0          
T        Si     0.478300000000     0.033366666667     0.058333333333     0          
T        Si     0.478733333333     0.033266666667     0.138333333333     0          
T        Si     0.333333333333     0.079233333333     0.000000000000     0          
T        Si     0.633300000000     0.111600000000     0.058333333333     0          
T        Si     0.633400000000     0.112133333333     0.138333333333     0          
T        Si     0.587433333333     0.254100000000     0.000000000000     0          
T        Si     0.555066666667     0.188366666667     0.058333333333     0          
T        Si     0.554533333333     0.187933333333     0.138333333333     0          
T        Si     0.412566666667     0.000000000000     0.000000000000     0          
T        Si     0.366700000000     0.144966666667     0.275000000000     0          
T        Si     0.366600000000     0.145400000000     0.195000000000     0          
T        Si     0.521700000000     0.221733333333     0.275000000000     0          
T        Si     0.521266666667     0.221200000000     0.195000000000     0          
T        Si     0.444933333333     0.299966666667     0.275000000000     0          
T        Si     0.445466666667     0.300066666667     0.195000000000     0          
T        Si     0.521700000000     0.299966666667     0.275000000000     0          
T        Si     0.521266666667     0.300066666667     0.195000000000     0          
T        Si     0.333333333333     0.254100000000     0.000000000000     0          
T        Si     0.366700000000     0.221733333333     0.275000000000     0          
T        Si     0.366600000000     0.221200000000     0.195000000000     0          
T        Si     0.412566666667     0.079233333333     0.000000000000     0          
T        Si     0.444933333333     0.144966666667     0.275000000000     0          
T        Si     0.445466666667     0.145400000000     0.195000000000     0          
T        Si     0.587433333333     0.000000000000     0.000000000000     0          
T        Si     0.633300000000     0.188366666667     0.058333333333     0          
T        Si     0.633400000000     0.187933333333     0.138333333333     0          
T        Si     0.478300000000     0.111600000000     0.058333333333     0          
T        Si     0.478733333333     0.112133333333     0.138333333333     0          
T        Si     0.555066666667     0.033366666667     0.058333333333     0          
T        Si     0.554533333333     0.033266666667     0.138333333333     0          
T        Si     0.478300000000     0.033366666667     0.391666666667     0          
T        Si     0.478733333333     0.033266666667     0.471666666667     0          
T        Si     0.333333333333     0.079233333333     0.333333333333     0          
T        Si     0.633300000000     0.111600000000     0.391666666667     0          
T        Si     0.633400000000     0.112133333333     0.471666666667     0          
T        Si     0.587433333333     0.254100000000     0.333333333333     0          
T        Si     0.555066666667     0.188366666667     0.391666666667     0          
T        Si     0.554533333333     0.187933333333     0.471666666667     0          
T        Si     0.412566666667     0.000000000000     0.333333333333     0          
T        Si     0.366700000000     0.144966666667     0.608333333333     0          
T        Si     0.366600000000     0.145400000000     0.528333333333     0          
T        Si     0.521700000000     0.221733333333     0.608333333333     0          
T        Si     0.521266666667     0.221200000000     0.528333333333     0          
T        Si     0.444933333333     0.299966666667     0.608333333333     0          
T        Si     0.445466666667     0.300066666667     0.528333333333     0          
T        Si     0.521700000000     0.299966666667     0.608333333333     0          
T        Si     0.521266666667     0.300066666667     0.528333333333     0          
T        Si     0.333333333333     0.254100000000     0.333333333333     0          
T        Si     0.366700000000     0.221733333333     0.608333333333     0          
T        Si     0.366600000000     0.221200000000     0.528333333333     0          
T        Si     0.412566666667     0.079233333333     0.333333333333     0          
T        Si     0.444933333333     0.144966666667     0.608333333333     0          
T        Si     0.445466666667     0.145400000000     0.528333333333     0          
T        Si     0.587433333333     0.000000000000     0.333333333333     0          
T        Si     0.633300000000     0.188366666667     0.391666666667     0          
T        Si     0.633400000000     0.187933333333     0.471666666667     0          
T        Si     0.478300000000     0.111600000000     0.391666666667     0          
T        Si     0.478733333333     0.112133333333     0.471666666667     0          
T        Si     0.555066666667     0.033366666667     0.391666666667     0          
T        Si     0.554533333333     0.033266666667     0.471666666667     0          
T        Si     0.478300000000     0.033366666667     0.725000000000     0          
T        Si     0.478733333333     0.033266666667     0.805000000000     0          
T        Si     0.333333333333     0.079233333333     0.666666666667     0          
T        Si     0.633300000000     0.111600000000     0.725000000000     0          
T        Si     0.633400000000     0.112133333333     0.805000000000     0          
T        Si     0.587433333333     0.254100000000     0.666666666667     0          
T        Si     0.555066666667     0.188366666667     0.725000000000     0          
T        Si     0.554533333333     0.187933333333     0.805000000000     0          
T        Si     0.412566666667     0.000000000000     0.666666666667     0          
T        Si     0.366700000000     0.144966666667     0.941666666667     0          
T        Si     0.366600000000     0.145400000000     0.861666666667     0          
T        Si     0.521700000000     0.221733333333     0.941666666667     0          
T        Si     0.521266666667     0.221200000000     0.861666666667     0          
T        Si     0.444933333333     0.299966666667     0.941666666667     0          
T        Si     0.445466666667     0.300066666667     0.861666666667     0          
T        Si     0.521700000000     0.299966666667     0.941666666667     0          
T        Si     0.521266666667     0.300066666667     0.861666666667     0          
T        Si     0.333333333333     0.254100000000     0.666666666667     0          
T        Si     0.366700000000     0.221733333333     0.941666666667     0          
T        Si     0.366600000000     0.221200000000     0.861666666667     0          
T        Si     0.412566666667     0.079233333333     0.666666666667     0          
T        Si     0.444933333333     0.144966666667     0.941666666667     0          
T        Si     0.445466666667     0.145400000000     0.861666666667     0          
T        Si     0.587433333333     0.000000000000     0.666666666667     0          
T        Si     0.633300000000     0.188366666667     0.725000000000     0          
T        Si     0.633400000000     0.187933333333     0.805000000000     0          
T        Si     0.478300000000     0.111600000000     0.725000000000     0          
T        Si     0.478733333333     0.112133333333     0.805000000000     0          
T        Si     0.555066666667     0.033366666667     0.725000000000     0          
T        Si     0.554533333333     0.033266666667     0.805000000000     0          
T        Si     0.478300000000     0.366700000000     0.058333333333     0          
T        Si     0.478733333333     0.366600000000     0.138333333333     0          
T        Si     0.333333333333     0.412566666667     0.000000000000     0          
T        Si     0.633300000000     0.444933333333     0.058333333333     0          
T        Si     0.633400000000     0.445466666667     0.138333333333     0          
T        Si     0.587433333333     0.587433333333     0.000000000000     0          
T        Si     0.555066666667     0.521700000000     0.058333333333     0          
T        Si     0.554533333333     0.521266666667     0.138333333333     0          
T        Si     0.412566666667     0.333333333333     0.000000000000     0          
T        Si     0.366700000000     0.478300000000     0.275000000000     0          
T        Si     0.366600000000     0.478733333333     0.195000000000     0          
T        Si     0.521700000000     0.555066666667     0.275000000000     0          
T        Si     0.521266666667     0.554533333333     0.195000000000     0          
T        Si     0.444933333333     0.633300000000     0.275000000000     0          
T        Si     0.445466666667     0.633400000000     0.195000000000     0          
T        Si     0.521700000000     0.633300000000     0.275000000000     0          
T        Si     0.521266666667     0.633400000000     0.195000000000     0          
T        Si     0.333333333333     0.587433333333     0.000000000000     0          
T        Si     0.366700000000     0.555066666667     0.275000000000     0          
T        Si     0.366600000000     0.554533333333     0.195000000000     0          
T        Si     0.412566666667     0.412566666667     0.000000000000     0          
T        Si     0.444933333333     0.478300000000     0.275000000000     0          
T        Si     0.445466666667     0.478733333333     0.195000000000     0          
T        Si     0.587433333333     0.333333333333     0.000000000000     0          
T        Si     0.633300000000     0.521700000000     0.058333333333     0          
T        Si     0.633400000000     0.521266666667     0.138333333333     0          
T        Si     0.478300000000     0.444933333333     0.058333333333     0          
T        Si     0.478733333333     0.445466666667     0.138333333333     0          
T        Si     0.555066666667     0.366700000000     0.058333333333     0          
T        Si     0.554533333333     0.366600000000     0.138333333333     0          
T        Si     0.478300000000     0.366700000000     0.391666666667     0          
T        Si     0.478733333333     0.366600000000     0.471666666667     0          
T        Si     0.333333333333     0.412566666667     0.333333333333     0          
T        Si     0.633300000000     0.444933333333     0.391666666667     0          
T        Si     0.633400000000     0.445466666667     0.471666666667     0          
T        Si     0.587433333333     0.587433333333     0.333333333333     0          
T        Si     0.555066666667     0.521700000000     0.391666666667     0          
T        Si     0.554533333333     0.521266666667     0.471666666667     0          
T        Si     0.412566666667     0.333333333333     0.333333333333     0          
T        Si     0.366700000000     0.478300000000     0.608333333333     0          
T        Si     0.366600000000     0.478733333333     0.528333333333     0          
T        Si     0.521700000000     0.555066666667     0.608333333333     0          
T        Si     0.521266666667     0.554533333333     0.528333333333     0          
T        Si     0.444933333333     0.633300000000     0.608333333333     0          
T        Si     0.445466666667     0.633400000000     0.528333333333     0          
T        Si     0.521700000000     0.633300000000     0.608333333333     0          
T        Si     0.521266666667     0.633400000000     0.528333333333     0          
T        Si     0.333333333333     0.587433333333     0.333333333333     0          
T        Si     0.366700000000     0.555066666667     0.608333333333     0          
T        Si     0.366600000000     0.554533333333     0.528333333333     0          
T        Si     0.412566666667     0.412566666667     0.333333333333     0          
T        Si     0.444933333333     0.478300000000     0.608333333333     0          
T        Si     0.445466666667     0.478733333333     0.528333333333     0          
T        Si     0.587433333333     0.333333333333     0.333333333333     0          
T        Si     0.633300000000     0.521700000000     0.391666666667     0          
T        Si     0.633400000000     0.521266666667     0.471666666667     0          
T        Si     0.478300000000     0.444933333333     0.391666666667     0          
T        Si     0.478733333333     0.445466666667     0.471666666667     0          
T        Si     0.555066666667     0.366700000000     0.391666666667     0          
T        Si     0.554533333333     0.366600000000     0.471666666667     0          
T        Si     0.478300000000     0.366700000000     0.725000000000     0          
T        Si     0.478733333333     0.366600000000     0.805000000000     0          
T        Si     0.333333333333     0.412566666667     0.666666666667     0          
T        Si     0.633300000000     0.444933333333     0.725000000000     0          
T        Si     0.633400000000     0.445466666667     0.805000000000     0          
T        Si     0.587433333333     0.587433333333     0.666666666667     0          
T        Si     0.555066666667     0.521700000000     0.725000000000     0          
T        Si     0.554533333333     0.521266666667     0.805000000000     0          
T        Si     0.412566666667     0.333333333333     0.666666666667     0          
T        Si     0.366700000000     0.478300000000     0.941666666667     0          
T        Si     0.366600000000     0.478733333333     0.861666666667     0          
T        Si     0.521700000000     0.555066666667     0.941666666667     0          
T        Si     0.521266666667     0.554533333333     0.861666666667     0          
T        Si     0.444933333333     0.633300000000     0.941666666667     0          
T        Si     0.445466666667     0.633400000000     0.861666666667     0          
T        Si     0.521700000000     0.633300000000     0.941666666667     0          
T        Si     0.521266666667     0.633400000000     0.861666666667     0          
T        Si     0.333333333333     0.587433333333     0.666666666667     0          
T        Si     0.366700000000     0.555066666667     0.941666666667     0          
T        Si     0.366600000000     0.554533333333     0.861666666667     0          
T        Si     0.412566666667     0.412566666667     0.666666666667     0          
T        Si     0.444933333333     0.478300000000     0.941666666667     0          
T        Si     0.445466666667     0.478733333333     0.861666666667     0          
T        Si     0.587433333333     0.333333333333     0.666666666667     0          
T        Si     0.633300000000     0.521700000000     0.725000000000     0          
T        Si     0.633400000000     0.521266666667     0.805000000000     0          
T        Si     0.478300000000     0.444933333333     0.725000000000     0          
T        Si     0.478733333333     0.445466666667     0.805000000000     0          
T        Si     0.555066666667     0.366700000000     0.725000000000     0          
T        Si     0.554533333333     0.366600000000     0.805000000000     0          
T        Si     0.478300000000     0.700033333333     0.058333333333     0          
T        Si     0.478733333333     0.699933333333     0.138333333333     0          
T        Si     0.333333333333     0.745900000000     0.000000000000     0          
T        Si     0.633300000000     0.778266666667     0.058333333333     0          
T        Si     0.633400000000     0.778800000000     0.138333333333     0          
T        Si     0.587433333333     0.920766666667     0.000000000000     0          
T        Si     0.555066666667     0.855033333333     0.058333333333     0          
T        Si     0.554533333333     0.854600000000     0.138333333333     0          
T        Si     0.412566666667     0.666666666667     0.000000000000     0          
T        Si     0.366700000000     0.811633333333     0.275000000000     0          
T        Si     0.366600000000     0.812066666667     0.195000000000     0          
T        Si     0.521700000000     0.888400000000     0.275000000000     0          
T        Si     0.521266666667     0.887866666667     0.195000000000     0          
T        Si     0.444933333333     0.966633333333     0.275000000000     0          
T        Si     0.445466666667     0.966733333333     0.195000000000     0          
T        Si     0.521700000000     0.966633333333     0.275000000000     0          
T        Si     0.521266666667     0.966733333333     0.195000000000     0          
T        Si     0.333333333333     0.920766666667     0.000000000000     0          
T        Si     0.366700000000     0.888400000000     0.275000000000     0          
T        Si     0.366600000000     0.887866666667     0.195000000000     0          
T        Si     0.412566666667     0.745900000000     0.000000000000     0          
T        Si     0.444933333333     0.811633333333     0.275000000000     0          
T        Si     0.445466666667     0.812066666667     0.195000000000     0          
T        Si     0.587433333333     0.666666666667     0.000000000000     0          
T        Si     0.633300000000     0.855033333333     0.058333333333     0          
T        Si     0.633400000000     0.854600000000     0.138333333333     0          
T        Si     0.478300000000     0.778266666667     0.058333333333     0          
T        Si     0.478733333333     0.778800000000     0.138333333333     0          
T        Si     0.555066666667     0.700033333333     0.058333333333     0          
T        Si     0.554533333333     0.699933333333     0.138333333333     0          
T        Si     0.478300000000     0.700033333333     0.391666666667     0          
T        Si     0.478733333333     0.699933333333     0.471666666667     0          
T        Si     0.333333333333     0.745900000000     0.333333333333     0          
T        Si     0.633300000000     0.778266666667     0.391666666667     0          
T        Si     0.633400000000     0.778800000000     0.471666666667     0          
T        Si     0.587433333333     0.920766666667     0.333333333333     0          
T        Si     0.555066666667     0.855033333333     0.391666666667     0          
T        Si     0.554533333333     0.854600000000     0.471666666667     0          
T        Si     0.412566666667     0.666666666667     0.333333333333     0          
T        Si     0.366700000000     0.811633333333     0.608333333333     0          
T        Si     0.366600000000     0.812066666667     0.528333333333     0          
T        Si     0.521700000000     0.888400000000     0.608333333333     0          
T        Si     0.521266666667     0.887866666667     0.528333333333     0          
T        Si     0.444933333333     0.966633333333     0.608333333333     0          
T        Si     0.445466666667     0.966733333333     0.528333333333     0          
T        Si     0.521700000000     0.966633333333     0.608333333333     0          
T        Si     0.521266666667     0.966733333333     0.528333333333     0          
T        Si     0.333333333333     0.920766666667     0.333333333333     0          
T        Si     0.366700000000     0.888400000000     0.608333333333     0          
T        Si     0.366600000000     0.887866666667     0.528333333333     0          
T        Si     0.412566666667     0.745900000000     0.333333333333     0          
T        Si     0.444933333333     0.811633333333     0.608333333333     0          
T        Si     0.445466666667     0.812066666667     0.528333333333     0          
T        Si     0.587433333333     0.666666666667     0.333333333333     0          
T        Si     0.633300000000     0.855033333333     0.391666666667     0          
T        Si     0.633400000000     0.854600000000     0.471666666667     0          
T        Si     0.478300000000     0.778266666667     0.391666666667     0          
T        Si     0.478733333333     0.778800000000     0.471666666667     0          
T        Si     0.555066666667     0.700033333333     0.391666666667     0          
T        Si     0.554533333333     0.699933333333     0.471666666667     0          
T        Si     0.478300000000     0.700033333333     0.725000000000     0          
T        Si     0.478733333333     0.699933333333     0.805000000000     0          
T        Si     0.333333333333     0.745900000000     0.666666666667     0          
T        Si     0.633300000000     0.778266666667     0.725000000000     0          
T        Si     0.633400000000     0.778800000000     0.805000000000     0          
T        Si     0.587433333333     0.920766666667     0.666666666667     0          
T        Si     0.555066666667     0.855033333333     0.725000000000     0          
T        Si     0.554533333333     0.854600000000     0.805000000000     0          
T        Si     0.412566666667     0.666666666667     0.666666666667     0          
T        Si     0.366700000000     0.811633333333     0.941666666667     0          
T        Si     0.366600000000     0.812066666667     0.861666666667     0          
T        Si     0.521700000000     0.888400000000     0.941666666667     0          
T        Si     0.521266666667     0.887866666667     0.861666666667     0          
T        Si     0.444933333333     0.966633333333     0.941666666667     0          
T        Si     0.445466666667     0.966733333333     0.861666666667     0          
T        Si     0.521700000000     0.966633333333     0.941666666667     0          
T        Si     0.521266666667     0.966733333333     0.861666666667     0          
T        Si     0.333333333333     0.920766666667     0.666666666667     0          
T        Si     0.366700000000     0.888400000000     0.941666666667     0          
T        Si     0.366600000000     0.887866666667     0.861666666667     0          
T        Si     0.412566666667     0.745900000000     0.666666666667     0          
T        Si     0.444933333333     0.811633333333     0.941666666667     0          
T        Si     0.445466666667     0.812066666667     0.861666666667     0          
T        Si     0.587433333333     0.666666666667     0.666666666667     0          
T        Si     0.633300000000     0.855033333333     0.725000000000     0          
T        Si     0.633400000000     0.854600000000     0.805000000000     0          
T        Si     0.478300000000     0.778266666667     0.725000000000     0          
T        Si     0.478733333333     0.778800000000     0.805000000000     0          
T        Si     0.555066666667     0.700033333333     0.725000000000     0          
T        Si     0.554533333333     0.699933333333     0.805000000000     0          
T        Si     0.811633333333     0.033366666667     0.058333333333     0          
T        Si     0.812066666667     0.033266666667     0.138333333333     0          
T        Si     0.666666666667     0.079233333333     0.000000000000     0          
T        Si     0.966633333333     0.111600000000     0.058333333333     0          
T        Si     0.966733333333     0.112133333333     0.138333333333     0          
T        Si     0.920766666667     0.254100000000     0.000000000000     0          
T        Si     0.888400000000     0.188366666667     0.058333333333     0          
T        Si     0.887866666667     0.187933333333     0.138333333333     0          
T        Si     0.745900000000     0.000000000000     0.000000000000     0          
T        Si     0.700033333333     0.144966666667     0.275000000000     0          
T        Si     0.699933333333     0.145400000000     0.195000000000     0          
T        Si     0.855033333333     0.221733333333     0.275000000000     0          
T        Si     0.854600000000     0.221200000000     0.195000000000     0          
T        Si     0.778266666667     0.299966666667     0.275000000000     0          
T        Si     0.778800000000     0.300066666667     0.195000000000     0          
T        Si     0.855033333333     0.299966666667     0.275000000000     0          
T        Si     0.854600000000     0.300066666667     0.195000000000     0          
T        Si     0.666666666667     0.254100000000     0.000000000000     0          
T        Si     0.700033333333     0.221733333333     0.275000000000     0          
T        Si     0.699933333333     0.221200000000     0.195000000000     0          
T        Si     0.745900000000     0.079233333333     0.000000000000     0          
T        Si     0.778266666667     0.144966666667     0.275000000000     0          
T        Si     0.778800000000     0.145400000000     0.195000000000     0          
T        Si     0.920766666667     0.000000000000     0.000000000000     0          
T        Si     0.966633333333     0.188366666667     0.058333333333     0          
T        Si     0.966733333333     0.187933333333     0.138333333333     0          
T        Si     0.811633333333     0.111600000000     0.058333333333     0          
T        Si     0.812066666667     0.112133333333     0.138333333333     0          
T        Si     0.888400000000     0.033366666667     0.058333333333     0          
T        Si     0.887866666667     0.033266666667     0.138333333333     0          
T        Si     0.811633333333     0.033366666667     0.391666666667     0          
T        Si     0.812066666667     0.033266666667     0.471666666667     0          
T        Si     0.666666666667     0.079233333333     0.333333333333     0          
T        Si     0.966633333333     0.111600000000     0.391666666667     0          
T        Si     0.966733333333     0.112133333333     0.471666666667     0          
T        Si     0.920766666667     0.254100000000     0.333333333333     0          
T        Si     0.888400000000     0.188366666667     0.391666666667     0          
T        Si     0.887866666667     0.187933333333     0.471666666667     0          
T        Si     0.745900000000     0.000000000000     0.333333333333     0          
T        Si     0.700033333333     0.144966666667     0.608333333333     0          
T        Si     0.699933333333     0.145400000000     0.528333333333     0          
T        Si     0.855033333333     0.221733333333     0.608333333333     0          
T        Si     0.854600000000     0.221200000000     0.528333333333     0          
T        Si     0.778266666667     0.299966666667     0.608333333333     0          
T        Si     0.778800000000     0.300066666667     0.528333333333     0          
T        Si     0.855033333333     0.299966666667     0.608333333333     0          
T        Si     0.854600000000     0.300066666667     0.528333333333     0          
T        Si     0.666666666667     0.254100000000     0.333333333333     0          
T        Si     0.700033333333     0.221733333333     0.608333333333     0          
T        Si     0.699933333333     0.221200000000     0.528333333333     0          
T        Si     0.745900000000     0.079233333333     0.333333333333     0          
T        Si     0.778266666667     0.144966666667     0.608333333333     0          
T        Si     0.778800000000     0.145400000000     0.528333333333     0          
T        Si     0.920766666667     0.000000000000     0.333333333333     0          
T        Si     0.966633333333     0.188366666667     0.391666666667     0          
T        Si     0.966733333333     0.187933333333     0.471666666667     0          
T        Si     0.811633333333     0.111600000000     0.391666666667     0          
T        Si     0.812066666667     0.112133333333     0.471666666667     0          
T        Si     0.888400000000     0.033366666667     0.391666666667     0          
T        Si     0.887866666667     0.033266666667     0.471666666667     0          
T        Si     0.811633333333     0.033366666667     0.725000000000     0          
T        Si     0.812066666667     0.033266666667     0.805000000000     0          
T        Si     0.666666666667     0.079233333333     0.666666666667     0          
T        Si     0.966633333333     0.111600000000     0.725000000000     0          
T        Si     0.966733333333     0.112133333333     0.805000000000     0          
T        Si     0.920766666667     0.254100000000     0.666666666667     0          
T        Si     0.888400000000     0.188366666667     0.725000000000     0          
T        Si     0.887866666667     0.187933333333     0.805000000000     0          
T        Si     0.745900000000     0.000000000000     0.666666666667     0          
T        Si     0.700033333333     0.144966666667     0.941666666667     0          
T        Si     0.699933333333     0.145400000000     0.861666666667     0          
T        Si     0.855033333333     0.221733333333     0.941666666667     0          
T        Si     0.854600000000     0.221200000000     0.861666666667     0          
T        Si     0.778266666667     0.299966666667     0.941666666667     0          
T        Si     0.778800000000     0.300066666667     0.861666666667     0          
T        Si     0.855033333333     0.299966666667     0.941666666667     0          
T        Si     0.854600000000     0.300066666667     0.861666666667     0          
T        Si     0.666666666667     0.254100000000     0.666666666667     0          
T        Si     0.700033333333     0.221733333333     0.941666666667     0          
T        Si     0.699933333333     0.221200000000     0.861666666667     0          
T        Si     0.745900000000     0.079233333333     0.666666666667     0          
T        Si     0.778266666667     0.144966666667     0.941666666667     0          
T        Si     0.778800000000     0.145400000000     0.861666666667     0          
T        Si     0.920766666667     0.000000000000     0.666666666667     0          
T        Si     0.966633333333     0.188366666667     0.725000000000     0          
T        Si     0.966733333333     0.187933333333     0.805000000000     0          
T        Si     0.811633333333     0.111600000000     0.725000000000     0          
T        Si     0.812066666667     0.112133333333     0.805000000000     0          
T        Si     0.888400000000     0.033366666667     0.725000000000     0          
T        Si     0.887866666667     0.033266666667     0.805000000000     0          
T        Si     0.811633333333     0.366700000000     0.058333333333     0          
T        Si     0.812066666667     0.366600000000     0.138333333333     0          
T        Si     0.666666666667     0.412566666667     0.000000000000     0          
T        Si     0.966633333333     0.444933333333     0.058333333333     0          
T        Si     0.966733333333     0.445466666667     0.138333333333     0          
T        Si     0.920766666667     0.587433333333     0.000000000000     0          
T        Si     0.888400000000     0.521700000000     0.058333333333     0          
T        Si     0.887866666667     0.521266666667     0.138333333333     0          
T        Si     0.745900000000     0.333333333333     0.000000000000     0          
T        Si     0.700033333333     0.478300000000     0.275000000000     0          
T        Si     0.699933333333     0.478733333333     0.195000000000     0          
T        Si     0.855033333333     0.555066666667     0.275000000000     0          
T        Si     0.854600000000     0.554533333333     0.195000000000     0          
T        Si     0.778266666667     0.633300000000     0.275000000000     0          
T        Si     0.778800000000     0.633400000000     0.195000000000     0          
T        Si     0.855033333333     0.633300000000     0.275000000000     0          
T        Si     0.854600000000     0.633400000000     0.195000000000     0          
T        Si     0.666666666667     0.587433333333     0.000000000000     0          
T        Si     0.700033333333     0.555066666667     0.275000000000     0          
T        Si     0.699933333333     0.554533333333     0.195000000000     0          
T        Si     0.745900000000     0.412566666667     0.000000000000     0          
T        Si     0.778266666667     0.478300000000     0.275000000000     0          
T        Si     0.778800000000     0.478733333333     0.195000000000     0          
T        Si     0.920766666667     0.333333333333     0.000000000000     0          
T        Si     0.966633333333     0.521700000000     0.058333333333     0          
T        Si     0.966733333333     0.521266666667     0.138333333333     0          
T        Si     0.811633333333     0.444933333333     0.058333333333     0          
T        Si     0.812066666667     0.445466666667     0.138333333333     0          
T        Si     0.888400000000     0.366700000000     0.058333333333     0          
T        Si     0.887866666667     0.366600000000     0.138333333333     0          
T        Si     0.811633333333     0.366700000000     0.391666666667     0          
T        Si     0.812066666667     0.366600000000     0.471666666667     0          
T        Si     0.666666666667     0.412566666667     0.333333333333     0          
T        Si     0.966633333333     0.444933333333     0.391666666667     0          
T        Si     0.966733333333     0.445466666667     0.471666666667     0          
T        Si     0.920766666667     0.587433333333     0.333333333333     0          
T        Si     0.888400000000     0.521700000000     0.391666666667     0          
T        Si     0.887866666667     0.521266666667     0.471666666667     0          
T        Si     0.745900000000     0.333333333333     0.333333333333     0          
T        Si     0.700033333333     0.478300000000     0.608333333333     0          
T        Si     0.699933333333     0.478733333333     0.528333333333     0          
T        Si     0.855033333333     0.555066666667     0.608333333333     0          
T        Si     0.854600000000     0.554533333333     0.528333333333     0          
T        Si     0.778266666667     0.633300000000     0.608333333333     0          
T        Si     0.778800000000     0.633400000000     0.528333333333     0          
T        Si     0.855033333333     0.633300000000     0.608333333333     0          
T        Si     0.854600000000     0.633400000000     0.528333333333     0          
T        Si     0.666666666667     0.587433333333     0.333333333333     0          
T        Si     0.700033333333     0.555066666667     0.608333333333     0          
T        Si     0.699933333333     0.554533333333     0.528333333333     0          
T        Si     0.745900000000     0.412566666667     0.333333333333     0          
T        Si     0.778266666667     0.478300000000     0.608333333333     0          
T        Si     0.778800000000     0.478733333333     0.528333333333     0          
T        Si     0.920766666667     0.333333333333     0.333333333333     0          
T        Si     0.966633333333     0.521700000000     0.391666666667     0          
T        Si     0.966733333333     0.521266666667     0.471666666667     0          
T        Si     0.811633333333     0.444933333333     0.391666666667     0          
T        Si     0.812066666667     0.445466666667     0.471666666667     0          
T        Si     0.888400000000     0.366700000000     0.391666666667     0          
T        Si     0.887866666667     0.366600000000     0.471666666667     0          
T        Si     0.811633333333     0.366700000000     0.725000000000     0          
T        Si     0.812066666667     0.366600000000     0.805000000000     0          
T        Si     0.666666666667     0.412566666667     0.666666666667     0          
T        Si     0.966633333333     0.444933333333     0.725000000000     0          
T        Si     0.966733333333     0.445466666667     0.805000000000     0          
T        Si     0.920766666667     0.587433333333     0.666666666667     0          
T        Si     0.888400000000     0.521700000000     0.725000000000     0          
T        Si     0.887866666667     0.521266666667     0.805000000000     0          
T        Si     0.745900000000     0.333333333333     0.666666666667     0          
T        Si     0.700033333333     0.478300000000     0.941666666667     0          
T        Si     0.699933333333     0.478733333333     0.861666666667     0          
T        Si     0.855033333333     0.555066666667     0.941666666667     0          
T        Si     0.854600000000     0.554533333333     0.861666666667     0          
T        Si     0.778266666667     0.633300000000     0.941666666667     0          
T        Si     0.778800000000     0.633400000000     0.861666666667     0          
T        Si     0.855033333333     0.633300000000     0.941666666667     0          
T        Si     0.854600000000     0.633400000000     0.861666666667     0          
T        Si     0.666666666667     0.587433333333     0.666666666667     0          
T        Si     0.700033333333     0.555066666667     0.941666666667     0          
T        Si     0.699933333333     0.554533333333     0.861666666667     0          
T        Si     0.745900000000     0.412566666667     0.666666666667     0          
T        Si     0.778266666667     0.478300000000     0.941666666667     0          
T        Si     0.778800000000     0.478733333333     0.861666666667     0          
T        Si     0.920766666667     0.333333333333     0.666666666667     0          
T        Si     0.966633333333     0.521700000000     0.725000000000     0          
T        Si     0.966733333333     0.521266666667     0.805000000000     0          
T        Si     0.811633333333     0.444933333333     0.725000000000     0          
T        Si     0.812066666667     0.445466666667     0.805000000000     0          
T        Si     0.888400000000     0.366700000000     0.725000000000     0          
T        Si     0.887866666667     0.366600000000     0.805000000000     0          
T        Si     0.811633333333     0.700033333333     0.058333333333     0          
T        Si     0.812066666667     0.699933333333     0.138333333333     0          
T        Si     0.666666666667     0.745900000000     0.000000000000     0          
T        Si     0.966633333333     0.778266666667     0.058333333333     0          
T        Si     0.966733333333     0.778800000000     0.138333333333     0          
T        Si     0.920766666667     0.920766666667     0.000000000000     0          
T        Si     0.888400000000     0.855033333333     0.058333333333     0          
T        Si     0.887866666667     0.854600000000     0.138333333333     0          
T        Si     0.745900000000     0.666666666667     0.000000000000     0          
T        Si     0.700033333333     0.811633333333     0.275000000000     0          
T        Si     0.699933333333     0.812066666667     0.195000000000     0          
T        Si     0.855033333333     0.888400000000     0.275000000000     0          
T        Si     0.854600000000     0.887866666667     0.195000000000     0          
T        Si     0.778266666667     0.966633333333     0.275000000000     0          
T        Si     0.778800000000     0.966733333333     0.195000000000     0          
T        Si     0.855033333333     0.966633333333     0.275000000000     0          
T        Si     0.854600000000     0.966733333333     0.195000000000     0          
T        Si     0.666666666667     0.920766666667     0.000000000000     0          
T        Si     0.700033333333     0.888400000000     0.275000000000     0          
T        Si     0.699933333333     0.887866666667     0.195000000000     0          
T        Si     0.745900000000     0.745900000000     0.000000000000     0          
T        Si     0.778266666667     0.811633333333     0.275000000000     0          
T        Si     0.778800000000     0.812066666667     0.195000000000     0          
T        Si     0.920766666667     0.666666666667     0.000000000000     0          
T        Si     0.966633333333     0.855033333333     0.058333333333     0          
T        Si     0.966733333333     0.854600000000     0.138333333333     0          
T        Si     0.811633333333     0.778266666667     0.058333333333     0          
T        Si     0.812066666667     0.778800000000     0.138333333333     0          
T        Si     0.888400000000     0.700033333333     0.058333333333     0          
T        Si     0.887866666667     0.699933333333     0.138333333333     0          
T        Si     0.811633333333     0.700033333333     0.391666666667     0          
T        Si     0.812066666667     0.699933333333     0.471666666667     0          
T        Si     0.666666666667     0.745900000000     0.333333333333     0          
T        Si     0.966633333333     0.778266666667     0.391666666667     0          
T        Si     0.966733333333     0.778800000000     0.471666666667     0          
T        Si     0.920766666667     0.920766666667     0.333333333333     0          
T        Si     0.888400000000     0.855033333333     0.391666666667     0          
T        Si     0.887866666667     0.854600000000     0.471666666667     0          
T        Si     0.745900000000     0.666666666667     0.333333333333     0          
T        Si     0.700033333333     0.811633333333     0.608333333333     0          
T        Si     0.699933333333     0.812066666667     0.528333333333     0          
T        Si     0.855033333333     0.888400000000     0.608333333333     0          
T        Si     0.854600000000     0.887866666667     0.528333333333     0          
T        Si     0.778266666667     0.966633333333     0.608333333333     0          
T        Si     0.778800000000     0.966733333333     0.528333333333     0          
T        Si     0.855033333333     0.966633333333     0.608333333333     0          
T        Si     0.854600000000     0.966733333333     0.528333333333     0          
T        Si     0.666666666667     0.920766666667     0.333333333333     0          
T        Si     0.700033333333     0.888400000000     0.608333333333     0          
T        Si     0.699933333333     0.887866666667     0.528333333333     0          
T        Si     0.745900000000     0.745900000000     0.333333333333     0          
T        Si     0.778266666667     0.811633333333     0.608333333333     0          
T        Si     0.778800000000     0.812066666667     0.528333333333     0          
T        Si     0.920766666667     0.666666666667     0.333333333333     0          
T        Si     0.966633333333     0.855033333333     0.391666666667     0          
T        Si     0.966733333333     0.854600000000     0.471666666667     0          
T        Si     0.811633333333     0.778266666667     0.391666666667     0          
T        Si     0.812066666667     0.778800000000     0.471666666667     0          
T        Si     0.888400000000     0.700033333333     0.391666666667     0          
T        Si     0.887866666667     0.699933333333     0.471666666667     0          
T        Si     0.811633333333     0.700033333333     0.725000000000     0          
T        Si     0.812066666667     0.699933333333     0.805000000000     0          
T        Si     0.666666666667     0.745900000000     0.666666666667     0          
T        Si     0.966633333333     0.778266666667     0.725000000000     0          
T        Si     0.966733333333     0.778800000000     0.805000000000     0          
T        Si     0.920766666667     0.920766666667     0.666666666667     0          
T        Si     0.888400000000     0.855033333333     0.725000000000     0          
T        Si     0.887866666667     0.854600000000     0.805000000000     0          
T        Si     0.745900000000     0.666666666667     0.666666666667     0          
T        Si     0.700033333333     0.811633333333     0.941666666667     0          
T        Si     0.699933333333     0.812066666667     0.861666666667     0          
T        Si     0.855033333333     0.888400000000     0.941666666667     0          
T        Si     0.854600000000     0.887866666667     0.861666666667     0          
T        Si     0.778266666667     0.966633333333     0.941666666667     0          
T        Si     0.778800000000     0.966733333333     0.861666666667     0          
T        Si     0.855033333333     0.966633333333     0.941666666667     0          
T        Si     0.854600000000     0.966733333333     0.861666666667     0          
T        Si     0.666666666667     0.920766666667     0.666666666667     0          
T        Si     0.700033333333     0.888400000000     0.941666666667     0          
T        Si     0.699933333333     0.887866666667     0.861666666667     0          
T        Si     0.745900000000     0.745900000000     0.666666666667     0          
T        Si     0.778266666667     0.811633333333     0.941666666667     0          
T        Si     0.778800000000     0.812066666667     0.861666666667     0          
T        Si     0.920766666667     0.666666666667     0.666666666667     0          
T        Si     0.966633333333     0.855033333333     0.725000000000     0          
T        Si     0.966733333333     0.854600000000     0.805000000000     0          
T        Si     0.811633333333     0.778266666667     0.725000000000     0          
T        Si     0.812066666667     0.778800000000     0.805000000000     0          
T        Si     0.888400000000     0.700033333333     0.725000000000     0          
T        Si     0.887866666667     0.699933333333     0.805000000000     0          
O        O      0.157400000000     0.078700000000     0.057300000000     0          
O        O      0.107333333333     0.008866666667     0.033700000000     0          
O        O      0.180866666667     0.028400000000     0.045133333333     0          
O        O      0.134133333333     0.017466666667     0.098366666667     0          
O        O      0.190833333333     0.048333333333     0.145066666667     0          
O        O      0.119566666667     0.000000000000     0.166666666667     0          
O        O      0.136866666667     0.068433333333     0.144233333333     0          
O        O      0.296100000000     0.037233333333     0.325233333333     0          
O        O      0.254633333333     0.078700000000     0.057300000000     0          
O        O      0.324466666667     0.098466666667     0.033700000000     0          
O        O      0.304933333333     0.152466666667     0.045133333333     0          
O        O      0.315866666667     0.116666666667     0.098366666667     0          
O        O      0.285000000000     0.142500000000     0.145066666667     0          
O        O      0.000000000000     0.119566666667     0.166666666667     0          
O        O      0.264900000000     0.068433333333     0.144233333333     0          
O        O      0.296100000000     0.258866666667     0.325233333333     0          
O        O      0.254633333333     0.175933333333     0.057300000000     0          
O        O      0.234866666667     0.226000000000     0.033700000000     0          
O        O      0.180866666667     0.152466666667     0.045133333333     0          
O        O      0.216666666667     0.199200000000     0.098366666667     0          
O        O      0.190833333333     0.142500000000     0.145066666667     0          
O        O      0.213766666667     0.213766666667     0.166666666667     0          
O        O      0.264900000000     0.196466666667     0.144233333333     0          
O        O      0.074466666667     0.037233333333     0.325233333333     0          
O        O      0.078700000000     0.157400000000     0.276033333333     0          
O        O      0.008866666667     0.107333333333     0.299633333333     0          
O        O      0.028400000000     0.180866666667     0.288200000000     0          
O        O      0.017466666667     0.134133333333     0.234966666667     0          
O        O      0.048333333333     0.190833333333     0.188266666667     0          
O        O      0.068433333333     0.136866666667     0.189100000000     0          
O        O      0.037233333333     0.296100000000     0.008100000000     0          
O        O      0.175933333333     0.254633333333     0.276033333333     0          
O        O      0.226000000000     0.234866666667     0.299633333333     0          
O        O      0.152466666667     0.180866666667     0.288200000000     0          
O        O      0.199200000000     0.216666666667     0.234966666667     0          
O        O      0.142500000000     0.190833333333     0.188266666667     0          
O        O      0.196466666667     0.264900000000     0.189100000000     0          
O        O      0.037233333333     0.074466666667     0.008100000000     0          
O        O      0.078700000000     0.254633333333     0.276033333333     0          
O        O      0.098466666667     0.324466666667     0.299633333333     0          
O        O      0.152466666667     0.304933333333     0.288200000000     0          
O        O      0.116666666667     0.315866666667     0.234966666667     0          
O        O      0.142500000000     0.285000000000     0.188266666667     0          
O        O      0.068433333333     0.264900000000     0.189100000000     0          
O        O      0.258866666667     0.296100000000     0.008100000000     0          
O        O      0.226000000000     0.324466666667     0.299633333333     0          
O        O      0.199200000000     0.315866666667     0.234966666667     0          
O        O      0.213766666667     0.000000000000     0.166666666667     0          
O        O      0.008866666667     0.234866666667     0.299633333333     0          
O        O      0.017466666667     0.216666666667     0.234966666667     0          
O        O      0.000000000000     0.213766666667     0.166666666667     0          
O        O      0.098466666667     0.107333333333     0.299633333333     0          
O        O      0.116666666667     0.134133333333     0.234966666667     0          
O        O      0.119566666667     0.119566666667     0.166666666667     0          
O        O      0.324466666667     0.226000000000     0.033700000000     0          
O        O      0.315866666667     0.199200000000     0.098366666667     0          
O        O      0.107333333333     0.098466666667     0.033700000000     0          
O        O      0.134133333333     0.116666666667     0.098366666667     0          
O        O      0.234866666667     0.008866666667     0.033700000000     0          
O        O      0.216666666667     0.017466666667     0.098366666667     0          
O        O      0.157400000000     0.078700000000     0.390633333333     0          
O        O      0.107333333333     0.008866666667     0.367033333333     0          
O        O      0.180866666667     0.028400000000     0.378466666667     0          
O        O      0.134133333333     0.017466666667     0.431700000000     0          
O        O      0.190833333333     0.048333333333     0.478400000000     0          
O        O      0.119566666667     0.000000000000     0.500000000000     0          
O        O      0.136866666667     0.068433333333     0.477566666667     0          
O        O      0.296100000000     0.037233333333     0.658566666667     0          
O        O      0.254633333333     0.078700000000     0.390633333333     0          
O        O      0.324466666667     0.098466666667     0.367033333333     0          
O        O      0.304933333333     0.152466666667     0.378466666667     0          
O        O      0.315866666667     0.116666666667     0.431700000000     0          
O        O      0.285000000000     0.142500000000     0.478400000000     0          
O        O      0.000000000000     0.119566666667     0.500000000000     0          
O        O      0.264900000000     0.068433333333     0.477566666667     0          
O        O      0.296100000000     0.258866666667     0.658566666667     0          
O        O      0.254633333333     0.175933333333     0.390633333333     0          
O        O      0.234866666667     0.226000000000     0.367033333333     0          
O        O      0.180866666667     0.152466666667     0.378466666667     0          
O        O      0.216666666667     0.199200000000     0.431700000000     0          
O        O      0.190833333333     0.142500000000     0.478400000000     0          
O        O      0.213766666667     0.213766666667     0.500000000000     0          
O        O      0.264900000000     0.196466666667     0.477566666667     0          
O        O      0.074466666667     0.037233333333     0.658566666667     0          
O        O      0.078700000000     0.157400000000     0.609366666667     0          
O        O      0.008866666667     0.107333333333     0.632966666667     0          
O        O      0.028400000000     0.180866666667     0.621533333333     0          
O        O      0.017466666667     0.134133333333     0.568300000000     0          
O        O      0.048333333333     0.190833333333     0.521600000000     0          
O        O      0.068433333333     0.136866666667     0.522433333333     0          
O        O      0.037233333333     0.296100000000     0.341433333333     0          
O        O      0.175933333333     0.254633333333     0.609366666667     0          
O        O      0.226000000000     0.234866666667     0.632966666667     0          
O        O      0.152466666667     0.180866666667     0.621533333333     0          
O        O      0.199200000000     0.216666666667     0.568300000000     0          
O        O      0.142500000000     0.190833333333     0.521600000000     0          
O        O      0.196466666667     0.264900000000     0.522433333333     0          
O        O      0.037233333333     0.074466666667     0.341433333333     0          
O        O      0.078700000000     0.254633333333     0.609366666667     0          
O        O      0.098466666667     0.324466666667     0.632966666667     0          
O        O      0.152466666667     0.304933333333     0.621533333333     0          
O        O      0.116666666667     0.315866666667     0.568300000000     0          
O        O      0.142500000000     0.285000000000     0.521600000000     0          
O        O      0.068433333333     0.264900000000     0.522433333333     0          
O        O      0.258866666667     0.296100000000     0.341433333333     0          
O        O      0.226000000000     0.324466666667     0.632966666667     0          
O        O      0.199200000000     0.315866666667     0.568300000000     0          
O        O      0.213766666667     0.000000000000     0.500000000000     0          
O        O      0.008866666667     0.234866666667     0.632966666667     0          
O        O      0.017466666667     0.216666666667     0.568300000000     0          
O        O      0.000000000000     0.213766666667     0.500000000000     0          
O        O      0.098466666667     0.107333333333     0.632966666667     0          
O        O      0.116666666667     0.134133333333     0.568300000000     0          
O        O      0.119566666667     0.119566666667     0.500000000000     0          
O        O      0.324466666667     0.226000000000     0.367033333333     0          
O        O      0.315866666667     0.199200000000     0.431700000000     0          
O        O      0.107333333333     0.098466666667     0.367033333333     0          
O        O      0.134133333333     0.116666666667     0.431700000000     0          
O        O      0.234866666667     0.008866666667     0.367033333333     0          
O        O      0.216666666667     0.017466666667     0.431700000000     0          
O        O      0.157400000000     0.078700000000     0.723966666667     0          
O        O      0.107333333333     0.008866666667     0.700366666667     0          
O        O      0.180866666667     0.028400000000     0.711800000000     0          
O        O      0.134133333333     0.017466666667     0.765033333333     0          
O        O      0.190833333333     0.048333333333     0.811733333333     0          
O        O      0.119566666667     0.000000000000     0.833333333333     0          
O        O      0.136866666667     0.068433333333     0.810900000000     0          
O        O      0.296100000000     0.037233333333     0.991900000000     0          
O        O      0.254633333333     0.078700000000     0.723966666667     0          
O        O      0.324466666667     0.098466666667     0.700366666667     0          
O        O      0.304933333333     0.152466666667     0.711800000000     0          
O        O      0.315866666667     0.116666666667     0.765033333333     0          
O        O      0.285000000000     0.142500000000     0.811733333333     0          
O        O      0.000000000000     0.119566666667     0.833333333333     0          
O        O      0.264900000000     0.068433333333     0.810900000000     0          
O        O      0.296100000000     0.258866666667     0.991900000000     0          
O        O      0.254633333333     0.175933333333     0.723966666667     0          
O        O      0.234866666667     0.226000000000     0.700366666667     0          
O        O      0.180866666667     0.152466666667     0.711800000000     0          
O        O      0.216666666667     0.199200000000     0.765033333333     0          
O        O      0.190833333333     0.142500000000     0.811733333333     0          
O        O      0.213766666667     0.213766666667     0.833333333333     0          
O        O      0.264900000000     0.196466666667     0.810900000000     0          
O        O      0.074466666667     0.037233333333     0.991900000000     0          
O        O      0.078700000000     0.157400000000     0.942700000000     0          
O        O      0.008866666667     0.107333333333     0.966300000000     0          
O        O      0.028400000000     0.180866666667     0.954866666667     0          
O        O      0.017466666667     0.134133333333     0.901633333333     0          
O        O      0.048333333333     0.190833333333     0.854933333333     0          
O        O      0.068433333333     0.136866666667     0.855766666667     0          
O        O      0.037233333333     0.296100000000     0.674766666667     0          
O        O      0.175933333333     0.254633333333     0.942700000000     0          
O        O      0.226000000000     0.234866666667     0.966300000000     0          
O        O      0.152466666667     0.180866666667     0.954866666667     0          
O        O      0.199200000000     0.216666666667     0.901633333333     0          
O        O      0.142500000000     0.190833333333     0.854933333333     0          
O        O      0.196466666667     0.264900000000     0.855766666667     0          
O        O      0.037233333333     0.074466666667     0.674766666667     0          
O        O      0.078700000000     0.254633333333     0.942700000000     0          
O        O      0.098466666667     0.324466666667     0.966300000000     0          
O        O      0.152466666667     0.304933333333     0.954866666667     0          
O        O      0.116666666667     0.315866666667     0.901633333333     0          
O        O      0.142500000000     0.285000000000     0.854933333333     0          
O        O      0.068433333333     0.264900000000     0.855766666667     0          
O        O      0.258866666667     0.296100000000     0.674766666667     0          
O        O      0.226000000000     0.324466666667     0.966300000000     0          
O        O      0.199200000000     0.315866666667     0.901633333333     0          
O        O      0.213766666667     0.000000000000     0.833333333333     0          
O        O      0.008866666667     0.234866666667     0.966300000000     0          
O        O      0.017466666667     0.216666666667     0.901633333333     0          
O        O      0.000000000000     0.213766666667     0.833333333333     0          
O        O      0.098466666667     0.107333333333     0.966300000000     0          
O        O      0.116666666667     0.134133333333     0.901633333333     0          
O        O      0.119566666667     0.119566666667     0.833333333333     0          
O        O      0.324466666667     0.226000000000     0.700366666667     0          
O        O      0.315866666667     0.199200000000     0.765033333333     0          
O        O      0.107333333333     0.098466666667     0.700366666667     0          
O        O      0.134133333333     0.116666666667     0.765033333333     0          
O        O      0.234866666667     0.008866666667     0.700366666667     0          
O        O      0.216666666667     0.017466666667     0.765033333333     0          
O        O      0.157400000000     0.412033333333     0.057300000000     0          
O        O      0.107333333333     0.342200000000     0.033700000000     0          
O        O      0.180866666667     0.361733333333     0.045133333333     0          
O        O      0.134133333333     0.350800000000     0.098366666667     0          
O        O      0.190833333333     0.381666666667     0.145066666667     0          
O        O      0.119566666667     0.333333333333     0.166666666667     0          
O        O      0.136866666667     0.401766666667     0.144233333333     0          
O        O      0.296100000000     0.370566666667     0.325233333333     0          
O        O      0.254633333333     0.412033333333     0.057300000000     0          
O        O      0.324466666667     0.431800000000     0.033700000000     0          
O        O      0.304933333333     0.485800000000     0.045133333333     0          
O        O      0.315866666667     0.450000000000     0.098366666667     0          
O        O      0.285000000000     0.475833333333     0.145066666667     0          
O        O      0.000000000000     0.452900000000     0.166666666667     0          
O        O      0.264900000000     0.401766666667     0.144233333333     0          
O        O      0.296100000000     0.592200000000     0.325233333333     0          
O        O      0.254633333333     0.509266666667     0.057300000000     0          
O        O      0.234866666667     0.559333333333     0.033700000000     0          
O        O      0.180866666667     0.485800000000     0.045133333333     0          
O        O      0.216666666667     0.532533333333     0.098366666667     0          
O        O      0.190833333333     0.475833333333     0.145066666667     0          
O        O      0.213766666667     0.547100000000     0.166666666667     0          
O        O      0.264900000000     0.529800000000     0.144233333333     0          
O        O      0.074466666667     0.370566666667     0.325233333333     0          
O        O      0.078700000000     0.490733333333     0.276033333333     0          
O        O      0.008866666667     0.440666666667     0.299633333333     0          
O        O      0.028400000000     0.514200000000     0.288200000000     0          
O        O      0.017466666667     0.467466666667     0.234966666667     0          
O        O      0.048333333333     0.524166666667     0.188266666667     0          
O        O      0.068433333333     0.470200000000     0.189100000000     0          
O        O      0.037233333333     0.629433333333     0.008100000000     0          
O        O      0.175933333333     0.587966666667     0.276033333333     0          
O        O      0.226000000000     0.568200000000     0.299633333333     0          
O        O      0.152466666667     0.514200000000     0.288200000000     0          
O        O      0.199200000000     0.550000000000     0.234966666667     0          
O        O      0.142500000000     0.524166666667     0.188266666667     0          
O        O      0.196466666667     0.598233333333     0.189100000000     0          
O        O      0.037233333333     0.407800000000     0.008100000000     0          
O        O      0.078700000000     0.587966666667     0.276033333333     0          
O        O      0.098466666667     0.657800000000     0.299633333333     0          
O        O      0.152466666667     0.638266666667     0.288200000000     0          
O        O      0.116666666667     0.649200000000     0.234966666667     0          
O        O      0.142500000000     0.618333333333     0.188266666667     0          
O        O      0.068433333333     0.598233333333     0.189100000000     0          
O        O      0.258866666667     0.629433333333     0.008100000000     0          
O        O      0.226000000000     0.657800000000     0.299633333333     0          
O        O      0.199200000000     0.649200000000     0.234966666667     0          
O        O      0.213766666667     0.333333333333     0.166666666667     0          
O        O      0.008866666667     0.568200000000     0.299633333333     0          
O        O      0.017466666667     0.550000000000     0.234966666667     0          
O        O      0.000000000000     0.547100000000     0.166666666667     0          
O        O      0.098466666667     0.440666666667     0.299633333333     0          
O        O      0.116666666667     0.467466666667     0.234966666667     0          
O        O      0.119566666667     0.452900000000     0.166666666667     0          
O        O      0.324466666667     0.559333333333     0.033700000000     0          
O        O      0.315866666667     0.532533333333     0.098366666667     0          
O        O      0.107333333333     0.431800000000     0.033700000000     0          
O        O      0.134133333333     0.450000000000     0.098366666667     0          
O        O      0.234866666667     0.342200000000     0.033700000000     0          
O        O      0.216666666667     0.350800000000     0.098366666667     0          
O        O      0.157400000000     0.412033333333     0.390633333333     0          
O        O      0.107333333333     0.342200000000     0.367033333333     0          
O        O      0.180866666667     0.361733333333     0.378466666667     0          
O        O      0.134133333333     0.350800000000     0.431700000000     0          
O        O      0.190833333333     0.381666666667     0.478400000000     0          
O        O      0.119566666667     0.333333333333     0.500000000000     0          
O        O      0.136866666667     0.401766666667     0.477566666667     0          
O        O      0.296100000000     0.370566666667     0.658566666667     0          
O        O      0.254633333333     0.412033333333     0.390633333333     0          
O        O      0.324466666667     0.431800000000     0.367033333333     0          
O        O      0.304933333333     0.485800000000     0.378466666667     0          
O        O      0.315866666667     0.450000000000     0.431700000000     0          
O        O      0.285000000000     0.475833333333     0.478400000000     0          
O        O      0.000000000000     0.452900000000     0.500000000000     0          
O        O      0.264900000000     0.401766666667     0.477566666667     0          
O        O      0.296100000000     0.592200000000     0.658566666667     0          
O        O      0.254633333333     0.509266666667     0.390633333333     0          
O        O      0.234866666667     0.559333333333     0.367033333333     0          
O        O      0.180866666667     0.485800000000     0.378466666667     0          
O        O      0.216666666667     0.532533333333     0.431700000000     0          
O        O      0.190833333333     0.475833333333     0.478400000000     0          
O        O      0.213766666667     0.547100000000     0.500000000000     0          
O        O      0.264900000000     0.529800000000     0.477566666667     0          
O        O      0.074466666667     0.370566666667     0.658566666667     0          
O        O      0.078700000000     0.490733333333     0.609366666667     0          
O        O      0.008866666667     0.440666666667     0.632966666667     0          
O        O      0.028400000000     0.514200000000     0.621533333333     0          
O        O      0.017466666667     0.467466666667     0.568300000000     0          
O        O      0.048333333333     0.524166666667     0.521600000000     0          
O        O      0.068433333333     0.470200000000     0.522433333333     0          
O        O      0.037233333333     0.629433333333     0.341433333333     0          
O        O      0.175933333333     0.587966666667     0.609366666667     0          
O        O      0.226000000000     0.568200000000     0.632966666667     0          
O        O      0.152466666667     0.514200000000     0.621533333333     0          
O        O      0.199200000000     0.550000000000     0.568300000000     0          
O        O      0.142500000000     0.524166666667     0.521600000000     0          
O        O      0.196466666667     0.598233333333     0.522433333333     0          
O        O      0.037233333333     0.407800000000     0.341433333333     0          
O        O      0.078700000000     0.587966666667     0.609366666667     0          
O        O      0.098466666667     0.657800000000     0.632966666667     0          
O        O      0.152466666667     0.638266666667     0.621533333333     0          
O        O      0.116666666667     0.649200000000     0.568300000000     0          
O        O      0.142500000000     0.618333333333     0.521600000000     0          
O        O      0.068433333333     0.598233333333     0.522433333333     0          
O        O      0.258866666667     0.629433333333     0.341433333333     0          
O        O      0.226000000000     0.657800000000     0.632966666667     0          
O        O      0.199200000000     0.649200000000     0.568300000000     0          
O        O      0.213766666667     0.333333333333     0.500000000000     0          
O        O      0.008866666667     0.568200000000     0.632966666667     0          
O        O      0.017466666667     0.550000000000     0.568300000000     0          
O        O      0.000000000000     0.547100000000     0.500000000000     0          
O        O      0.098466666667     0.440666666667     0.632966666667     0          
O        O      0.116666666667     0.467466666667     0.568300000000     0          
O        O      0.119566666667     0.452900000000     0.500000000000     0          
O        O      0.324466666667     0.559333333333     0.367033333333     0          
O        O      0.315866666667     0.532533333333     0.431700000000     0          
O        O      0.107333333333     0.431800000000     0.367033333333     0          
O        O      0.134133333333     0.450000000000     0.431700000000     0          
O        O      0.234866666667     0.342200000000     0.367033333333     0          
O        O      0.216666666667     0.350800000000     0.431700000000     0          
O        O      0.157400000000     0.412033333333     0.723966666667     0          
O        O      0.107333333333     0.342200000000     0.700366666667     0          
O        O      0.180866666667     0.361733333333     0.711800000000     0          
O        O      0.134133333333     0.350800000000     0.765033333333     0          
O        O      0.190833333333     0.381666666667     0.811733333333     0          
O        O      0.119566666667     0.333333333333     0.833333333333     0          
O        O      0.136866666667     0.401766666667     0.810900000000     0          
O        O      0.296100000000     0.370566666667     0.991900000000     0          
O        O      0.254633333333     0.412033333333     0.723966666667     0          
O        O      0.324466666667     0.431800000000     0.700366666667     0          
O        O      0.304933333333     0.485800000000     0.711800000000     0          
O        O      0.315866666667     0.450000000000     0.765033333333     0          
O        O      0.285000000000     0.475833333333     0.811733333333     0          
O        O      0.000000000000     0.452900000000     0.833333333333     0          
O        O      0.264900000000     0.401766666667     0.810900000000     0          
O        O      0.296100000000     0.592200000000     0.991900000000     0          
O        O      0.254633333333     0.509266666667     0.723966666667     0          
O        O      0.234866666667     0.559333333333     0.700366666667     0          
O        O      0.180866666667     0.485800000000     0.711800000000     0          
O        O      0.216666666667     0.532533333333     0.765033333333     0          
O        O      0.190833333333     0.475833333333     0.811733333333     0          
O        O      0.213766666667     0.547100000000     0.833333333333     0          
O        O      0.264900000000     0.529800000000     0.810900000000     0          
O        O      0.074466666667     0.370566666667     0.991900000000     0          
O        O      0.078700000000     0.490733333333     0.942700000000     0          
O        O      0.008866666667     0.440666666667     0.966300000000     0          
O        O      0.028400000000     0.514200000000     0.954866666667     0          
O        O      0.017466666667     0.467466666667     0.901633333333     0          
O        O      0.048333333333     0.524166666667     0.854933333333     0          
O        O      0.068433333333     0.470200000000     0.855766666667     0          
O        O      0.037233333333     0.629433333333     0.674766666667     0          
O        O      0.175933333333     0.587966666667     0.942700000000     0          
O        O      0.226000000000     0.568200000000     0.966300000000     0          
O        O      0.152466666667     0.514200000000     0.954866666667     0          
O        O      0.199200000000     0.550000000000     0.901633333333     0          
O        O      0.142500000000     0.524166666667     0.854933333333     0          
O        O      0.196466666667     0.598233333333     0.855766666667     0          
O        O      0.037233333333     0.407800000000     0.674766666667     0          
O        O      0.078700000000     0.587966666667     0.942700000000     0          
O        O      0.098466666667     0.657800000000     0.966300000000     0          
O        O      0.152466666667     0.638266666667     0.954866666667     0          
O        O      0.116666666667     0.649200000000     0.901633333333     0          
O        O      0.142500000000     0.618333333333     0.854933333333     0          
O        O      0.068433333333     0.598233333333     0.855766666667     0          
O        O      0.258866666667     0.629433333333     0.674766666667     0          
O        O      0.226000000000     0.657800000000     0.966300000000     0          
O        O      0.199200000000     0.649200000000     0.901633333333     0          
O        O      0.213766666667     0.333333333333     0.833333333333     0          
O        O      0.008866666667     0.568200000000     0.966300000000     0          
O        O      0.017466666667     0.550000000000     0.901633333333     0          
O        O      0.000000000000     0.547100000000     0.833333333333     0          
O        O      0.098466666667     0.440666666667     0.966300000000     0          
O        O      0.116666666667     0.467466666667     0.901633333333     0          
O        O      0.119566666667     0.452900000000     0.833333333333     0          
O        O      0.324466666667     0.559333333333     0.700366666667     0          
O        O      0.315866666667     0.532533333333     0.765033333333     0          
O        O      0.107333333333     0.431800000000     0.700366666667     0          
O        O      0.134133333333     0.450000000000     0.765033333333     0          
O        O      0.234866666667     0.342200000000     0.700366666667     0          
O        O      0.216666666667     0.350800000000     0.765033333333     0          
O        O      0.157400000000     0.745366666667     0.057300000000     0          
O        O      0.107333333333     0.675533333333     0.033700000000     0          
O        O      0.180866666667     0.695066666667     0.045133333333     0          
O        O      0.134133333333     0.684133333333     0.098366666667     0          
O        O      0.190833333333     0.715000000000     0.145066666667     0          
O        O      0.119566666667     0.666666666667     0.166666666667     0          
O        O      0.136866666667     0.735100000000     0.144233333333     0          
O        O      0.296100000000     0.703900000000     0.325233333333     0          
O        O      0.254633333333     0.745366666667     0.057300000000     0          
O        O      0.324466666667     0.765133333333     0.033700000000     0          
O        O      0.304933333333     0.819133333333     0.045133333333     0          
O        O      0.315866666667     0.783333333333     0.098366666667     0          
O        O      0.285000000000     0.809166666667     0.145066666667     0          
O        O      0.000000000000     0.786233333333     0.166666666667     0          
O        O      0.264900000000     0.735100000000     0.144233333333     0          
O        O      0.296100000000     0.925533333333     0.325233333333     0          
O        O      0.254633333333     0.842600000000     0.057300000000     0          
O        O      0.234866666667     0.892666666667     0.033700000000     0          
O        O      0.180866666667     0.819133333333     0.045133333333     0          
O        O      0.216666666667     0.865866666667     0.098366666667     0          
O        O      0.190833333333     0.809166666667     0.145066666667     0          
O        O      0.213766666667     0.880433333333     0.166666666667     0          
O        O      0.264900000000     0.863133333333     0.144233333333     0          
O        O      0.074466666667     0.703900000000     0.325233333333     0          
O        O      0.078700000000     0.824066666667     0.276033333333     0          
O        O      0.008866666667     0.774000000000     0.299633333333     0          
O        O      0.028400000000     0.847533333333     0.288200000000     0          
O        O      0.017466666667     0.800800000000     0.234966666667     0          
O        O      0.048333333333     0.857500000000     0.188266666667     0          
O        O      0.068433333333     0.803533333333     0.189100000000     0          
O        O      0.037233333333     0.962766666667     0.008100000000     0          
O        O      0.175933333333     0.921300000000     0.276033333333     0          
O        O      0.226000000000     0.901533333333     0.299633333333     0          
O        O      0.152466666667     0.847533333333     0.288200000000     0          
O        O      0.199200000000     0.883333333333     0.234966666667     0          
O        O      0.142500000000     0.857500000000     0.188266666667     0          
O        O      0.196466666667     0.931566666667     0.189100000000     0          
O        O      0.037233333333     0.741133333333     0.008100000000     0          
O        O      0.078700000000     0.921300000000     0.276033333333     0          
O        O      0.098466666667     0.991133333333     0.299633333333     0          
O        O      0.152466666667     0.971600000000     0.288200000000     0          
O        O      0.116666666667     0.982533333333     0.234966666667     0          
O        O      0.142500000000     0.951666666667     0.188266666667     0          
O        O      0.068433333333     0.931566666667     0.189100000000     0          
O        O      0.258866666667     0.962766666667     0.008100000000     0          
O        O      0.226000000000     0.991133333333     0.299633333333     0          
O        O      0.199200000000     0.982533333333     0.234966666667     0          
O        O      0.213766666667     0.666666666667     0.166666666667     0          
O        O      0.008866666667     0.901533333333     0.299633333333     0          
O        O      0.017466666667     0.883333333333     0.234966666667     0          
O        O      0.000000000000     0.880433333333     0.166666666667     0          
O        O      0.098466666667     0.774000000000     0.299633333333     0          
O        O      0.116666666667     0.800800000000     0.234966666667     0          
O        O      0.119566666667     0.786233333333     0.166666666667     0          
O        O      0.324466666667     0.892666666667     0.033700000000     0          
O        O      0.315866666667     0.865866666667     0.098366666667     0          
O        O      0.107333333333     0.765133333333     0.033700000000     0          
O        O      0.134133333333     0.783333333333     0.098366666667     0          
O        O      0.234866666667     0.675533333333     0.033700000000     0          
O        O      0.216666666667     0.684133333333     0.098366666667     0          
O        O      0.157400000000     0.745366666667     0.390633333333     0          
O        O      0.107333333333     0.675533333333     0.367033333333     0          
O        O      0.180866666667     0.695066666667     0.378466666667     0          
O        O      0.134133333333     0.684133333333     0.431700000000     0          
O        O      0.190833333333     0.715000000000     0.478400000000     0          
O        O      0.119566666667     0.666666666667     0.500000000000     0          
O        O      0.136866666667     0.735100000000     0.477566666667     0          
O        O      0.296100000000     0.703900000000     0.658566666667     0          
O        O      0.254633333333     0.745366666667     0.390633333333     0          
O        O      0.324466666667     0.765133333333     0.367033333333     0          
O        O      0.304933333333     0.819133333333     0.378466666667     0          
O        O      0.315866666667     0.783333333333     0.431700000000     0          
O        O      0.285000000000     0.809166666667     0.478400000000     0          
O        O      0.000000000000     0.786233333333     0.500000000000     0          
O        O      0.264900000000     0.735100000000     0.477566666667     0          
O        O      0.296100000000     0.925533333333     0.658566666667     0          
O        O      0.254633333333     0.842600000000     0.390633333333     0          
O        O      0.234866666667     0.892666666667     0.367033333333     0          
O        O      0.180866666667     0.819133333333     0.378466666667     0          
O        O      0.216666666667     0.865866666667     0.431700000000     0          
O        O      0.190833333333     0.809166666667     0.478400000000     0          
O        O      0.213766666667     0.880433333333     0.500000000000     0          
O        O      0.264900000000     0.863133333333     0.477566666667     0          
O        O      0.074466666667     0.703900000000     0.658566666667     0          
O        O      0.078700000000     0.824066666667     0.609366666667     0          
O        O      0.008866666667     0.774000000000     0.632966666667     0          
O        O      0.028400000000     0.847533333333     0.621533333333     0          
O        O      0.017466666667     0.800800000000     0.568300000000     0          
O        O      0.048333333333     0.857500000000     0.521600000000     0          
O        O      0.068433333333     0.803533333333     0.522433333333     0          
O        O      0.037233333333     0.962766666667     0.341433333333     0          
O        O      0.175933333333     0.921300000000     0.609366666667     0          
O        O      0.226000000000     0.901533333333     0.632966666667     0          
O        O      0.152466666667     0.847533333333     0.621533333333     0          
O        O      0.199200000000     0.883333333333     0.568300000000     0          
O        O      0.142500000000     0.857500000000     0.521600000000     0          
O        O      0.196466666667     0.931566666667     0.522433333333     0          
O        O      0.037233333333     0.741133333333     0.341433333333     0          
O        O      0.078700000000     0.921300000000     0.609366666667     0          
O        O      0.098466666667     0.991133333333     0.632966666667     0          
O        O      0.152466666667     0.971600000000     0.621533333333     0          
O        O      0.116666666667     0.982533333333     0.568300000000     0          
O        O      0.142500000000     0.951666666667     0.521600000000     0          
O        O      0.068433333333     0.931566666667     0.522433333333     0          
O        O      0.258866666667     0.962766666667     0.341433333333     0          
O        O      0.226000000000     0.991133333333     0.632966666667     0          
O        O      0.199200000000     0.982533333333     0.568300000000     0          
O        O      0.213766666667     0.666666666667     0.500000000000     0          
O        O      0.008866666667     0.901533333333     0.632966666667     0          
O        O      0.017466666667     0.883333333333     0.568300000000     0          
O        O      0.000000000000     0.880433333333     0.500000000000     0          
O        O      0.098466666667     0.774000000000     0.632966666667     0          
O        O      0.116666666667     0.800800000000     0.568300000000     0          
O        O      0.119566666667     0.786233333333     0.500000000000     0          
O        O      0.324466666667     0.892666666667     0.367033333333     0          
O        O      0.315866666667     0.865866666667     0.431700000000     0          
O        O      0.107333333333     0.765133333333     0.367033333333     0          
O        O      0.134133333333     0.783333333333     0.431700000000     0          
O        O      0.234866666667     0.675533333333     0.367033333333     0          
O        O      0.216666666667     0.684133333333     0.431700000000     0          
O        O      0.157400000000     0.745366666667     0.723966666667     0          
O        O      0.107333333333     0.675533333333     0.700366666667     0          
O        O      0.180866666667     0.695066666667     0.711800000000     0          
O        O      0.134133333333     0.684133333333     0.765033333333     0          
O        O      0.190833333333     0.715000000000     0.811733333333     0          
O        O      0.119566666667     0.666666666667     0.833333333333     0          
O        O      0.136866666667     0.735100000000     0.810900000000     0          
O        O      0.296100000000     0.703900000000     0.991900000000     0          
O        O      0.254633333333     0.745366666667     0.723966666667     0          
O        O      0.324466666667     0.765133333333     0.700366666667     0          
O        O      0.304933333333     0.819133333333     0.711800000000     0          
O        O      0.315866666667     0.783333333333     0.765033333333     0          
O        O      0.285000000000     0.809166666667     0.811733333333     0          
O        O      0.000000000000     0.786233333333     0.833333333333     0          
O        O      0.264900000000     0.735100000000     0.810900000000     0          
O        O      0.296100000000     0.925533333333     0.991900000000     0          
O        O      0.254633333333     0.842600000000     0.723966666667     0          
O        O      0.234866666667     0.892666666667     0.700366666667     0          
O        O      0.180866666667     0.819133333333     0.711800000000     0          
O        O      0.216666666667     0.865866666667     0.765033333333     0          
O        O      0.190833333333     0.809166666667     0.811733333333     0          
O        O      0.213766666667     0.880433333333     0.833333333333     0          
O        O      0.264900000000     0.863133333333     0.810900000000     0          
O        O      0.074466666667     0.703900000000     0.991900000000     0          
O        O      0.078700000000     0.824066666667     0.942700000000     0          
O        O      0.008866666667     0.774000000000     0.966300000000     0          
O        O      0.028400000000     0.847533333333     0.954866666667     0          
O        O      0.017466666667     0.800800000000     0.901633333333     0          
O        O      0.048333333333     0.857500000000     0.854933333333     0          
O        O      0.068433333333     0.803533333333     0.855766666667     0          
O        O      0.037233333333     0.962766666667     0.674766666667     0          
O        O      0.175933333333     0.921300000000     0.942700000000     0          
O        O      0.226000000000     0.901533333333     0.966300000000     0          
O        O      0.152466666667     0.847533333333     0.954866666667     0          
O        O      0.199200000000     0.883333333333     0.901633333333     0          
O        O      0.142500000000     0.857500000000     0.854933333333     0          
O        O      0.196466666667     0.931566666667     0.855766666667     0          
O        O      0.037233333333     0.741133333333     0.674766666667     0          
O        O      0.078700000000     0.921300000000     0.942700000000     0          
O        O      0.098466666667     0.991133333333     0.966300000000     0          
O        O      0.152466666667     0.971600000000     0.954866666667     0          
O        O      0.116666666667     0.982533333333     0.901633333333     0          
O        O      0.142500000000     0.951666666667     0.854933333333     0          
O        O      0.068433333333     0.931566666667     0.855766666667     0          
O        O      0.258866666667     0.962766666667     0.674766666667     0          
O        O      0.226000000000     0.991133333333     0.966300000000     0          
O        O      0.199200000000     0.982533333333     0.901633333333     0          
O        O      0.213766666667     0.666666666667     0.833333333333     0          
O        O      0.008866666667     0.901533333333     0.966300000000     0          
O        O      0.017466666667     0.883333333333     0.901633333333     0          
O        O      0.000000000000     0.880433333333     0.833333333333     0          
O        O      0.098466666667     0.774000000000     0.966300000000     0          
O        O      0.116666666667     0.800800000000     0.901633333333     0          
O        O      0.119566666667     0.786233333333     0.833333333333     0          
O        O      0.324466666667     0.892666666667     0.700366666667     0          
O        O      0.315866666667     0.865866666667     0.765033333333     0          
O        O      0.107333333333     0.765133333333     0.700366666667     0          
O        O      0.134133333333     0.783333333333     0.765033333333     0          
O        O      0.234866666667     0.675533333333     0.700366666667     0          
O        O      0.216666666667     0.684133333333     0.765033333333     0          
O        O      0.490733333333     0.078700000000     0.057300000000     0          
O        O      0.440666666667     0.008866666667     0.033700000000     0          
O        O      0.514200000000     0.028400000000     0.045133333333     0          
O        O      0.467466666667     0.017466666667     0.098366666667     0          
O        O      0.524166666667     0.048333333333     0.145066666667     0          
O        O      0.452900000000     0.000000000000     0.166666666667     0          
O        O      0.470200000000     0.068433333333     0.144233333333     0          
O        O      0.629433333333     0.037233333333     0.325233333333     0          
O        O      0.587966666667     0.078700000000     0.057300000000     0          
O        O      0.657800000000     0.098466666667     0.033700000000     0          
O        O      0.638266666667     0.152466666667     0.045133333333     0          
O        O      0.649200000000     0.116666666667     0.098366666667     0          
O        O      0.618333333333     0.142500000000     0.145066666667     0          
O        O      0.333333333333     0.119566666667     0.166666666667     0          
O        O      0.598233333333     0.068433333333     0.144233333333     0          
O        O      0.629433333333     0.258866666667     0.325233333333     0          
O        O      0.587966666667     0.175933333333     0.057300000000     0          
O        O      0.568200000000     0.226000000000     0.033700000000     0          
O        O      0.514200000000     0.152466666667     0.045133333333     0          
O        O      0.550000000000     0.199200000000     0.098366666667     0          
O        O      0.524166666667     0.142500000000     0.145066666667     0          
O        O      0.547100000000     0.213766666667     0.166666666667     0          
O        O      0.598233333333     0.196466666667     0.144233333333     0          
O        O      0.407800000000     0.037233333333     0.325233333333     0          
O        O      0.412033333333     0.157400000000     0.276033333333     0          
O        O      0.342200000000     0.107333333333     0.299633333333     0          
O        O      0.361733333333     0.180866666667     0.288200000000     0          
O        O      0.350800000000     0.134133333333     0.234966666667     0          
O        O      0.381666666667     0.190833333333     0.188266666667     0          
O        O      0.401766666667     0.136866666667     0.189100000000     0          
O        O      0.370566666667     0.296100000000     0.008100000000     0          
O        O      0.509266666667     0.254633333333     0.276033333333     0          
O        O      0.559333333333     0.234866666667     0.299633333333     0          
O        O      0.485800000000     0.180866666667     0.288200000000     0          
O        O      0.532533333333     0.216666666667     0.234966666667     0          
O        O      0.475833333333     0.190833333333     0.188266666667     0          
O        O      0.529800000000     0.264900000000     0.189100000000     0          
O        O      0.370566666667     0.074466666667     0.008100000000     0          
O        O      0.412033333333     0.254633333333     0.276033333333     0          
O        O      0.431800000000     0.324466666667     0.299633333333     0          
O        O      0.485800000000     0.304933333333     0.288200000000     0          
O        O      0.450000000000     0.315866666667     0.234966666667     0          
O        O      0.475833333333     0.285000000000     0.188266666667     0          
O        O      0.401766666667     0.264900000000     0.189100000000     0          
O        O      0.592200000000     0.296100000000     0.008100000000     0          
O        O      0.559333333333     0.324466666667     0.299633333333     0          
O        O      0.532533333333     0.315866666667     0.234966666667     0          
O        O      0.547100000000     0.000000000000     0.166666666667     0          
O        O      0.342200000000     0.234866666667     0.299633333333     0          
O        O      0.350800000000     0.216666666667     0.234966666667     0          
O        O      0.333333333333     0.213766666667     0.166666666667     0          
O        O      0.431800000000     0.107333333333     0.299633333333     0          
O        O      0.450000000000     0.134133333333     0.234966666667     0          
O        O      0.452900000000     0.119566666667     0.166666666667     0          
O        O      0.657800000000     0.226000000000     0.033700000000     0          
O        O      0.649200000000     0.199200000000     0.098366666667     0          
O        O      0.440666666667     0.098466666667     0.033700000000     0          
O        O      0.467466666667     0.116666666667     0.098366666667     0          
O        O      0.568200000000     0.008866666667     0.033700000000     0          
O        O      0.550000000000     0.017466666667     0.098366666667     0          
O        O      0.490733333333     0.078700000000     0.390633333333     0          
O        O      0.440666666667     0.008866666667     0.367033333333     0          
O        O      0.514200000000     0.028400000000     0.378466666667     0          
O        O      0.467466666667     0.017466666667     0.431700000000     0          
O        O      0.524166666667     0.048333333333     0.478400000000     0          
O        O      0.452900000000     0.000000000000     0.500000000000     0          
O        O      0.470200000000     0.068433333333     0.477566666667     0          
O        O      0.629433333333     0.037233333333     0.658566666667     0          
O        O      0.587966666667     0.078700000000     0.390633333333     0          
O        O      0.657800000000     0.098466666667     0.367033333333     0          
O        O      0.638266666667     0.152466666667     0.378466666667     0          
O        O      0.649200000000     0.116666666667     0.431700000000     0          
O        O      0.618333333333     0.142500000000     0.478400000000     0          
O        O      0.333333333333     0.119566666667     0.500000000000     0          
O        O      0.598233333333     0.068433333333     0.477566666667     0          
O        O      0.629433333333     0.258866666667     0.658566666667     0          
O        O      0.587966666667     0.175933333333     0.390633333333     0          
O        O      0.568200000000     0.226000000000     0.367033333333     0          
O        O      0.514200000000     0.152466666667     0.378466666667     0          
O        O      0.550000000000     0.199200000000     0.431700000000     0          
O        O      0.524166666667     0.142500000000     0.478400000000     0          
O        O      0.547100000000     0.213766666667     0.500000000000     0          
O        O      0.598233333333     0.196466666667     0.477566666667     0          
O        O      0.407800000000     0.037233333333     0.658566666667     0          
O        O      0.412033333333     0.157400000000     0.609366666667     0          
O        O      0.342200000000     0.107333333333     0.632966666667     0          
O        O      0.361733333333     0.180866666667     0.621533333333     0          
O        O      0.350800000000     0.134133333333     0.568300000000     0          
O        O      0.381666666667     0.190833333333     0.521600000000     0          
O        O      0.401766666667     0.136866666667     0.522433333333     0          
O        O      0.370566666667     0.296100000000     0.341433333333     0          
O        O      0.509266666667     0.254633333333     0.609366666667     0          
O        O      0.559333333333     0.234866666667     0.632966666667     0          
O        O      0.485800000000     0.180866666667     0.621533333333     0          
O        O      0.532533333333     0.216666666667     0.568300000000     0          
O        O      0.475833333333     0.190833333333     0.521600000000     0          
O        O      0.529800000000     0.264900000000     0.522433333333     0          
O        O      0.370566666667     0.074466666667     0.341433333333     0          
O        O      0.412033333333     0.254633333333     0.609366666667     0          
O        O      0.431800000000     0.324466666667     0.632966666667     0          
O        O      0.485800000000     0.304933333333     0.621533333333     0          
O        O      0.450000000000     0.315866666667     0.568300000000     0          
O        O      0.475833333333     0.285000000000     0.521600000000     0          
O        O      0.401766666667     0.264900000000     0.522433333333     0          
O        O      0.592200000000     0.296100000000     0.341433333333     0          
O        O      0.559333333333     0.324466666667     0.632966666667     0          
O        O      0.532533333333     0.315866666667     0.568300000000     0          
O        O      0.547100000000     0.000000000000     0.500000000000     0          
O        O      0.342200000000     0.234866666667     0.632966666667     0          
O        O      0.350800000000     0.216666666667     0.568300000000     0          
O        O      0.333333333333     0.213766666667     0.500000000000     0          
O        O      0.431800000000     0.107333333333     0.632966666667     0          
O        O      0.450000000000     0.134133333333     0.568300000000     0          
O        O      0.452900000000     0.119566666667     0.500000000000     0          
O        O      0.657800000000     0.226000000000     0.367033333333     0          
O        O      0.649200000000     0.199200000000     0.431700000000     0          
O        O      0.440666666667     0.098466666667     0.367033333333     0          
O        O      0.467466666667     0.116666666667     0.431700000000     0          
O        O      0.568200000000     0.008866666667     0.367033333333     0          
O        O      0.550000000000     0.017466666667     0.431700000000     0          
O        O      0.490733333333     0.078700000000     0.723966666667     0          
O        O      0.440666666667     0.008866666667     0.700366666667     0          
O        O      0.514200000000     0.028400000000     0.711800000000     0          
O        O      0.467466666667     0.017466666667     0.765033333333     0          
O        O      0.524166666667     0.048333333333     0.811733333333     0          
O        O      0.452900000000     0.000000000000     0.833333333333     0          
O        O      0.470200000000     0.068433333333     0.810900000000     0          
O        O      0.629433333333     0.037233333333     0.991900000000     0          
O        O      0.587966666667     0.078700000000     0.723966666667     0          
O        O      0.657800000000     0.098466666667     0.700366666667     0          
O        O      0.638266666667     0.152466666667     0.711800000000     0          
O        O      0.649200000000     0.116666666667     0.765033333333     0          
O        O      0.618333333333     0.142500000000     0.811733333333     0          
O        O      0.333333333333     0.119566666667     0.833333333333     0          
O        O      0.598233333333     0.068433333333     0.810900000000     0          
O        O      0.629433333333     0.258866666667     0.991900000000     0          
O        O      0.587966666667     0.175933333333     0.723966666667     0          
O        O      0.568200000000     0.226000000000     0.700366666667     0          
O        O      0.514200000000     0.152466666667     0.711800000000     0          
O        O      0.550000000000     0.199200000000     0.765033333333     0          
O        O      0.524166666667     0.142500000000     0.811733333333     0          
O        O      0.547100000000     0.213766666667     0.833333333333     0          
O        O      0.598233333333     0.196466666667     0.810900000000     0          
O        O      0.407800000000     0.037233333333     0.991900000000     0          
O        O      0.412033333333     0.157400000000     0.942700000000     0          
O        O      0.342200000000     0.107333333333     0.966300000000     0          
O        O      0.361733333333     0.180866666667     0.954866666667     0          
O        O      0.350800000000     0.134133333333     0.901633333333     0          
O        O      0.381666666667     0.190833333333     0.854933333333     0          
O        O      0.401766666667     0.136866666667     0.855766666667     0          
O        O      0.370566666667     0.296100000000     0.674766666667     0          
O        O      0.509266666667     0.254633333333     0.942700000000     0          
O        O      0.559333333333     0.234866666667     0.966300000000     0          
O        O      0.485800000000     0.180866666667     0.954866666667     0          
O        O      0.532533333333     0.216666666667     0.901633333333     0          
O        O      0.475833333333     0.190833333333     0.854933333333     0          
O        O      0.529800000000     0.264900000000     0.855766666667     0          
O        O      0.370566666667     0.074466666667     0.674766666667     0          
O        O      0.412033333333     0.254633333333     0.942700000000     0          
O        O      0.431800000000     0.324466666667     0.966300000000     0          
O        O      0.485800000000     0.304933333333     0.954866666667     0          
O        O      0.450000000000     0.315866666667     0.901633333333     0          
O        O      0.475833333333     0.285000000000     0.854933333333     0          
O        O      0.401766666667     0.264900000000     0.855766666667     0          
O        O      0.592200000000     0.296100000000     0.674766666667     0          
O        O      0.559333333333     0.324466666667     0.966300000000     0          
O        O      0.532533333333     0.315866666667     0.901633333333     0          
O        O      0.547100000000     0.000000000000     0.833333333333     0          
O        O      0.342200000000     0.234866666667     0.966300000000     0          
O        O      0.350800000000     0.216666666667     0.901633333333     0          
O        O      0.333333333333     0.213766666667     0.833333333333     0          
O        O      0.431800000000     0.107333333333     0.966300000000     0          
O        O      0.450000000000     0.134133333333     0.901633333333     0          
O        O      0.452900000000     0.119566666667     0.833333333333     0          
O        O      0.657800000000     0.226000000000     0.700366666667     0          
O        O      0.649200000000     0.199200000000     0.765033333333     0          
O        O      0.440666666667     0.098466666667     0.700366666667     0          
O        O      0.467466666667     0.116666666667     0.765033333333     0          
O        O      0.568200000000     0.008866666667     0.700366666667     0          
O        O      0.550000000000     0.017466666667     0.765033333333     0          
O        O      0.490733333333     0.412033333333     0.057300000000     0          
O        O      0.440666666667     0.342200000000     0.033700000000     0          
O        O      0.514200000000     0.361733333333     0.045133333333     0          
O        O      0.467466666667     0.350800000000     0.098366666667     0          
O        O      0.524166666667     0.381666666667     0.145066666667     0          
O        O      0.452900000000     0.333333333333     0.166666666667     0          
O        O      0.470200000000     0.401766666667     0.144233333333     0          
O        O      0.629433333333     0.370566666667     0.325233333333     0          
O        O      0.587966666667     0.412033333333     0.057300000000     0          
O        O      0.657800000000     0.431800000000     0.033700000000     0          
O        O      0.638266666667     0.485800000000     0.045133333333     0          
O        O      0.649200000000     0.450000000000     0.098366666667     0          
O        O      0.618333333333     0.475833333333     0.145066666667     0          
O        O      0.333333333333     0.452900000000     0.166666666667     0          
O        O      0.598233333333     0.401766666667     0.144233333333     0          
O        O      0.629433333333     0.592200000000     0.325233333333     0          
O        O      0.587966666667     0.509266666667     0.057300000000     0          
O        O      0.568200000000     0.559333333333     0.033700000000     0          
O        O      0.514200000000     0.485800000000     0.045133333333     0          
O        O      0.550000000000     0.532533333333     0.098366666667     0          
O        O      0.524166666667     0.475833333333     0.145066666667     0          
O        O      0.547100000000     0.547100000000     0.166666666667     0          
O        O      0.598233333333     0.529800000000     0.144233333333     0          
O        O      0.407800000000     0.370566666667     0.325233333333     0          
O        O      0.412033333333     0.490733333333     0.276033333333     0          
O        O      0.342200000000     0.440666666667     0.299633333333     0          
O        O      0.361733333333     0.514200000000     0.288200000000     0          
O        O      0.350800000000     0.467466666667     0.234966666667     0          
O        O      0.381666666667     0.524166666667     0.188266666667     0          
O        O      0.401766666667     0.470200000000     0.189100000000     0          
O        O      0.370566666667     0.629433333333     0.008100000000     0          
O        O      0.509266666667     0.587966666667     0.276033333333     0          
O        O      0.559333333333     0.568200000000     0.299633333333     0          
O        O      0.485800000000     0.514200000000     0.288200000000     0          
O        O      0.532533333333     0.550000000000     0.234966666667     0          
O        O      0.475833333333     0.524166666667     0.188266666667     0          
O        O      0.529800000000     0.598233333333     0.189100000000     0          
O        O      0.370566666667     0.407800000000     0.008100000000     0          
O        O      0.412033333333     0.587966666667     0.276033333333     0          
O        O      0.431800000000     0.657800000000     0.299633333333     0          
O        O      0.485800000000     0.638266666667     0.288200000000     0          
O        O      0.450000000000     0.649200000000     0.234966666667     0          
O        O      0.475833333333     0.618333333333     0.188266666667     0          
O        O      0.401766666667     0.598233333333     0.189100000000     0          
O        O      0.592200000000     0.629433333333     0.008100000000     0          
O        O      0.559333333333     0.657800000000     0.299633333333     0          
O        O      0.532533333333     0.649200000000     0.234966666667     0          
O        O      0.547100000000     0.333333333333     0.166666666667     0          
O        O      0.342200000000     0.568200000000     0.299633333333     0          
O        O      0.350800000000     0.550000000000     0.234966666667     0          
O        O      0.333333333333     0.547100000000     0.166666666667     0          
O        O      0.431800000000     0.440666666667     0.299633333333     0          
O        O      0.450000000000     0.467466666667     0.234966666667     0          
O        O      0.452900000000     0.452900000000     0.166666666667     0          
O        O      0.657800000000     0.559333333333     0.033700000000     0          
O        O      0.649200000000     0.532533333333     0.098366666667     0          
O        O      0.440666666667     0.431800000000     0.033700000000     0          
O        O      0.467466666667     0.450000000000     0.098366666667     0          
O        O      0.568200000000     0.342200000000     0.033700000000     0          
O        O      0.550000000000     0.350800000000     0.098366666667     0          
O        O      0.490733333333     0.412033333333     0.390633333333     0          
O        O      0.440666666667     0.342200000000     0.367033333333     0          
O        O      0.514200000000     0.361733333333     0.378466666667     0          
O        O      0.467466666667     0.350800000000     0.431700000000     0          
O        O      0.524166666667     0.381666666667     0.478400000000     0          
O        O      0.452900000000     0.333333333333     0.500000000000     0          
O        O      0.470200000000     0.401766666667     0.477566666667     0          
O        O      0.629433333333     0.370566666667     0.658566666667     0          
O        O      0.587966666667     0.412033333333     0.390633333333     0          
O        O      0.657800000000     0.431800000000     0.367033333333     0          
O        O      0.638266666667     0.485800000000     0.378466666667     0          
O        O      0.649200000000     0.450000000000     0.431700000000     0          
O        O      0.618333333333     0.475833333333     0.478400000000     0          
O        O      0.333333333333     0.452900000000     0.500000000000     0          
O        O      0.598233333333     0.401766666667     0.477566666667     0          
O        O      0.629433333333     0.592200000000     0.658566666667     0          
O        O      0.587966666667     0.509266666667     0.390633333333     0          
O        O      0.568200000000     0.559333333333     0.367033333333     0          
O        O      0.514200000000     0.485800000000     0.378466666667     0          
O        O      0.550000000000     0.532533333333     0.431700000000     0          
O        O      0.524166666667     0.475833333333     0.478400000000     0          
O        O      0.547100000000     0.547100000000     0.500000000000     0          
O        O      0.598233333333     0.529800000000     0.477566666667     0          
O        O      0.407800000000     0.370566666667     0.658566666667     0          
O        O      0.412033333333     0.490733333333     0.609366666667     0          
O        O      0.342200000000     0.440666666667     0.632966666667     0          
O        O      0.361733333333     0.514200000000     0.621533333333     0          
O        O      0.350800000000     0.467466666667     0.568300000000     0          
O        O      0.381666666667     0.524166666667     0.521600000000     0          
O        O      0.401766666667     0.470200000000     0.522433333333     0          
O        O      0.370566666667     0.629433333333     0.341433333333     0          
O        O      0.509266666667     0.587966666667     0.609366666667     0          
O        O      0.559333333333     0.568200000000     0.632966666667     0          
O        O      0.485800000000     0.514200000000     0.621533333333     0          
O        O      0.532533333333     0.550000000000     0.568300000000     0          
O        O      0.475833333333     0.524166666667     0.521600000000     0          
O        O      0.529800000000     0.598233333333     0.522433333333     0          
O        O      0.370566666667     0.407800000000     0.341433333333     0          
O        O      0.412033333333     0.587966666667     0.609366666667     0          
O        O      0.431800000000     0.657800000000     0.632966666667     0          
O        O      0.485800000000     0.638266666667     0.621533333333     0          
O        O      0.450000000000     0.649200000000     0.568300000000     0          
O        O      0.475833333333     0.618333333333     0.521600000000     0          
O        O      0.401766666667     0.598233333333     0.522433333333     0          
O        O      0.592200000000     0.629433333333     0.341433333333     0          
O        O      0.559333333333     0.657800000000     0.632966666667     0          
O        O      0.532533333333     0.649200000000     0.568300000000     0          
O        O      0.547100000000     0.333333333333     0.500000000000     0          
O        O      0.342200000000     0.568200000000     0.632966666667     0          
O        O      0.350800000000     0.550000000000     0.568300000000     0          
O        O      0.333333333333     0.547100000000     0.500000000000     0          
O        O      0.431800000000     0.440666666667     0.632966666667     0          
O        O      0.450000000000     0.467466666667     0.568300000000     0          
O        O      0.452900000000     0.452900000000     0.500000000000     0          
O        O      0.657800000000     0.559333333333     0.367033333333     0          
O        O      0.649200000000     0.532533333333     0.431700000000     0          
O        O      0.440666666667     0.431800000000     0.367033333333     0          
O        O      0.467466666667     0.450000000000     0.431700000000     0          
O        O      0.568200000000     0.342200000000     0.367033333333     0          
O        O      0.550000000000     0.350800000000     0.431700000000     0          
O        O      0.490733333333     0.412033333333     0.723966666667     0          
O        O      0.440666666667     0.342200000000     0.700366666667     0          
O        O      0.514200000000     0.361733333333     0.711800000000     0          
O        O      0.467466666667     0.350800000000     0.765033333333     0          
O        O      0.524166666667     0.381666666667     0.811733333333     0          
O        O      0.452900000000     0.333333333333     0.833333333333     0          
O        O      0.470200000000     0.401766666667     0.810900000000     0          
O        O      0.629433333333     0.370566666667     0.991900000000     0          
O        O      0.587966666667     0.412033333333     0.723966666667     0          
O        O      0.657800000000     0.431800000000     0.700366666667     0          
O        O      0.638266666667     0.485800000000     0.711800000000     0          
O        O      0.649200000000     0.450000000000     0.765033333333     0          
O        O      0.618333333333     0.475833333333     0.811733333333     0          
O        O      0.333333333333     0.452900000000     0.833333333333     0          
O        O      0.598233333333     0.401766666667     0.810900000000     0          
O        O      0.629433333333     0.592200000000     0.991900000000     0          
O        O      0.587966666667     0.509266666667     0.723966666667     0          
O        O      0.568200000000     0.559333333333     0.700366666667     0          
O        O      0.514200000000     0.485800000000     0.711800000000     0          
O        O      0.550000000000     0.532533333333     0.765033333333     0          
O        O      0.524166666667     0.475833333333     0.811733333333     0          
O        O      0.547100000000     0.547100000000     0.833333333333     0          
O        O      0.598233333333     0.529800000000     0.810900000000     0          
O        O      0.407800000000     0.370566666667     0.991900000000     0          
O        O      0.412033333333     0.490733333333     0.942700000000     0          
O        O      0.342200000000     0.440666666667     0.966300000000     0          
O        O      0.361733333333     0.514200000000     0.954866666667     0          
O        O      0.350800000000     0.467466666667     0.901633333333     0          
O        O      0.381666666667     0.524166666667     0.854933333333     0          
O        O      0.401766666667     0.470200000000     0.855766666667     0          
O        O      0.370566666667     0.629433333333     0.674766666667     0          
O        O      0.509266666667     0.587966666667     0.942700000000     0          
O        O      0.559333333333     0.568200000000     0.966300000000     0          
O        O      0.485800000000     0.514200000000     0.954866666667     0          
O        O      0.532533333333     0.550000000000     0.901633333333     0          
O        O      0.475833333333     0.524166666667     0.854933333333     0          
O        O      0.529800000000     0.598233333333     0.855766666667     0          
O        O      0.370566666667     0.407800000000     0.674766666667     0          
O        O      0.412033333333     0.587966666667     0.942700000000     0          
O        O      0.431800000000     0.657800000000     0.966300000000     0          
O        O      0.485800000000     0.638266666667     0.954866666667     0          
O        O      0.450000000000     0.649200000000     0.901633333333     0          
O        O      0.475833333333     0.618333333333     0.854933333333     0          
O        O      0.401766666667     0.598233333333     0.855766666667     0          
O        O      0.592200000000     0.629433333333     0.674766666667     0          
O        O      0.559333333333     0.657800000000     0.966300000000     0          
O        O      0.532533333333     0.649200000000     0.901633333333     0          
O        O      0.547100000000     0.333333333333     0.833333333333     0          
O        O      0.342200000000     0.568200000000     0.966300000000     0          
O        O      0.350800000000     0.550000000000     0.901633333333     0          
O        O      0.333333333333     0.547100000000     0.833333333333     0          
O        O      0.431800000000     0.440666666667     0.966300000000     0          
O        O      0.450000000000     0.467466666667     0.901633333333     0          
O        O      0.452900000000     0.452900000000     0.833333333333     0          
O        O      0.657800000000     0.559333333333     0.700366666667     0          
O        O      0.649200000000     0.532533333333     0.765033333333     0          
O        O      0.440666666667     0.431800000000     0.700366666667     0          
O        O      0.467466666667     0.450000000000     0.765033333333     0          
O        O      0.568200000000     0.342200000000     0.700366666667     0          
O        O      0.550000000000     0.350800000000     0.765033333333     0          
O        O      0.490733333333     0.745366666667     0.057300000000     0          
O        O      0.440666666667     0.675533333333     0.033700000000     0          
O        O      0.514200000000     0.695066666667     0.045133333333     0          
O        O      0.467466666667     0.684133333333     0.098366666667     0          
O        O      0.524166666667     0.715000000000     0.145066666667     0          
O        O      0.452900000000     0.666666666667     0.166666666667     0          
O        O      0.470200000000     0.735100000000     0.144233333333     0          
O        O      0.629433333333     0.703900000000     0.325233333333     0          
O        O      0.587966666667     0.745366666667     0.057300000000     0          
O        O      0.657800000000     0.765133333333     0.033700000000     0          
O        O      0.638266666667     0.819133333333     0.045133333333     0          
O        O      0.649200000000     0.783333333333     0.098366666667     0          
O        O      0.618333333333     0.809166666667     0.145066666667     0          
O        O      0.333333333333     0.786233333333     0.166666666667     0          
O        O      0.598233333333     0.735100000000     0.144233333333     0          
O        O      0.629433333333     0.925533333333     0.325233333333     0          
O        O      0.587966666667     0.842600000000     0.057300000000     0          
O        O      0.568200000000     0.892666666667     0.033700000000     0          
O        O      0.514200000000     0.819133333333     0.045133333333     0          
O        O      0.550000000000     0.865866666667     0.098366666667     0          
O        O      0.524166666667     0.809166666667     0.145066666667     0          
O        O      0.547100000000     0.880433333333     0.166666666667     0          
O        O      0.598233333333     0.863133333333     0.144233333333     0          
O        O      0.407800000000     0.703900000000     0.325233333333     0          
O        O      0.412033333333     0.824066666667     0.276033333333     0          
O        O      0.342200000000     0.774000000000     0.299633333333     0          
O        O      0.361733333333     0.847533333333     0.288200000000     0          
O        O      0.350800000000     0.800800000000     0.234966666667     0          
O        O      0.381666666667     0.857500000000     0.188266666667     0          
O        O      0.401766666667     0.803533333333     0.189100000000     0          
O        O      0.370566666667     0.962766666667     0.008100000000     0          
O        O      0.509266666667     0.921300000000     0.276033333333     0          
O        O      0.559333333333     0.901533333333     0.299633333333     0          
O        O      0.485800000000     0.847533333333     0.288200000000     0          
O        O      0.532533333333     0.883333333333     0.234966666667     0          
O        O      0.475833333333     0.857500000000     0.188266666667     0          
O        O      0.529800000000     0.931566666667     0.189100000000     0          
O        O      0.370566666667     0.741133333333     0.008100000000     0          
O        O      0.412033333333     0.921300000000     0.276033333333     0          
O        O      0.431800000000     0.991133333333     0.299633333333     0          
O        O      0.485800000000     0.971600000000     0.288200000000     0          
O        O      0.450000000000     0.982533333333     0.234966666667     0          
O        O      0.475833333333     0.951666666667     0.188266666667     0          
O        O      0.401766666667     0.931566666667     0.189100000000     0          
O        O      0.592200000000     0.962766666667     0.008100000000     0          
O        O      0.559333333333     0.991133333333     0.299633333333     0          
O        O      0.532533333333     0.982533333333     0.234966666667     0          
O        O      0.547100000000     0.666666666667     0.166666666667     0          
O        O      0.342200000000     0.901533333333     0.299633333333     0          
O        O      0.350800000000     0.883333333333     0.234966666667     0          
O        O      0.333333333333     0.880433333333     0.166666666667     0          
O        O      0.431800000000     0.774000000000     0.299633333333     0          
O        O      0.450000000000     0.800800000000     0.234966666667     0          
O        O      0.452900000000     0.786233333333     0.166666666667     0          
O        O      0.657800000000     0.892666666667     0.033700000000     0          
O        O      0.649200000000     0.865866666667     0.098366666667     0          
O        O      0.440666666667     0.765133333333     0.033700000000     0          
O        O      0.467466666667     0.783333333333     0.098366666667     0          
O        O      0.568200000000     0.675533333333     0.033700000000     0          
O        O      0.550000000000     0.684133333333     0.098366666667     0          
O        O      0.490733333333     0.745366666667     0.390633333333     0          
O        O      0.440666666667     0.675533333333     0.367033333333     0          
O        O      0.514200000000     0.695066666667     0.378466666667     0          
O        O      0.467466666667     0.684133333333     0.431700000000     0          
O        O      0.524166666667     0.715000000000     0.478400000000     0          
O        O      0.452900000000     0.666666666667     0.500000000000     0          
O        O      0.470200000000     0.735100000000     0.477566666667     0          
O        O      0.629433333333     0.703900000000     0.658566666667     0          
O        O      0.587966666667     0.745366666667     0.390633333333     0          
O        O      0.657800000000     0.765133333333     0.367033333333     0          
O        O      0.638266666667     0.819133333333     0.378466666667     0          
O        O      0.649200000000     0.783333333333     0.431700000000     0          
O        O      0.618333333333     0.809166666667     0.478400000000     0          
O        O      0.333333333333     0.786233333333     0.500000000000     0          
O        O      0.598233333333     0.735100000000     0.477566666667     0          
O        O      0.629433333333     0.925533333333     0.658566666667     0          
O        O      0.587966666667     0.842600000000     0.390633333333     0          
O        O      0.568200000000     0.892666666667     0.367033333333     0          
O        O      0.514200000000     0.819133333333     0.378466666667     0          
O        O      0.550000000000     0.865866666667     0.431700000000     0          
O        O      0.524166666667     0.809166666667     0.478400000000     0          
O        O      0.547100000000     0.880433333333     0.500000000000     0          
O        O      0.598233333333     0.863133333333     0.477566666667     0          
O        O      0.407800000000     0.703900000000     0.658566666667     0          
O        O      0.412033333333     0.824066666667     0.609366666667     0          
O        O      0.342200000000     0.774000000000     0.632966666667     0          
O        O      0.361733333333     0.847533333333     0.621533333333     0          
O        O      0.350800000000     0.800800000000     0.568300000000     0          
O        O      0.381666666667     0.857500000000     0.521600000000     0          
O        O      0.401766666667     0.803533333333     0.522433333333     0          
O        O      0.370566666667     0.962766666667     0.341433333333     0          
O        O      0.509266666667     0.921300000000     0.609366666667     0          
O        O      0.559333333333     0.901533333333     0.632966666667     0          
O        O      0.485800000000     0.847533333333     0.621533333333     0          
O        O      0.532533333333     0.883333333333     0.568300000000     0          
O        O      0.475833333333     0.857500000000     0.521600000000     0          
O        O      0.529800000000     0.931566666667     0.522433333333     0          
O        O      0.370566666667     0.741133333333     0.341433333333     0          
O        O      0.412033333333     0.921300000000     0.609366666667     0          
O        O      0.431800000000     0.991133333333     0.632966666667     0          
O        O      0.485800000000     0.971600000000     0.621533333333     0          
O        O      0.450000000000     0.982533333333     0.568300000000     0          
O        O      0.475833333333     0.951666666667     0.521600000000     0          
O        O      0.401766666667     0.931566666667     0.522433333333     0          
O        O      0.592200000000     0.962766666667     0.341433333333     0          
O        O      0.559333333333     0.991133333333     0.632966666667     0          
O        O      0.532533333333     0.982533333333     0.568300000000     0          
O        O      0.547100000000     0.666666666667     0.500000000000     0          
O        O      0.342200000000     0.901533333333     0.632966666667     0          
O        O      0.350800000000     0.883333333333     0.568300000000     0          
O        O      0.333333333333     0.880433333333     0.500000000000     0          
O        O      0.431800000000     0.774000000000     0.632966666667     0          
O        O      0.450000000000     0.800800000000     0.568300000000     0          
O        O      0.452900000000     0.786233333333     0.500000000000     0          
O        O      0.657800000000     0.892666666667     0.367033333333     0          
O        O      0.649200000000     0.865866666667     0.431700000000     0          
O        O      0.440666666667     0.765133333333     0.367033333333     0          
O        O      0.467466666667     0.783333333333     0.431700000000     0          
O        O      0.568200000000     0.675533333333     0.367033333333     0          
O        O      0.550000000000     0.684133333333     0.431700000000     0          
O        O      0.490733333333     0.745366666667     0.723966666667     0          
O        O      0.440666666667     0.675533333333     0.700366666667     0          
O        O      0.514200000000     0.695066666667     0.711800000000     0          
O        O      0.467466666667     0.684133333333     0.765033333333     0          
O        O      0.524166666667     0.715000000000     0.811733333333     0          
O        O      0.452900000000     0.666666666667     0.833333333333     0          
O        O      0.470200000000     0.735100000000     0.810900000000     0          
O        O      0.629433333333     0.703900000000     0.991900000000     0          
O        O      0.587966666667     0.745366666667     0.723966666667     0          
O        O      0.657800000000     0.765133333333     0.700366666667     0          
O        O      0.638266666667     0.819133333333     0.711800000000     0          
O        O      0.649200000000     0.783333333333     0.765033333333     0          
O        O      0.618333333333     0.809166666667     0.811733333333     0          
O        O      0.333333333333     0.786233333333     0.833333333333     0          
O        O      0.598233333333     0.735100000000     0.810900000000     0          
O        O      0.629433333333     0.925533333333     0.991900000000     0          
O        O      0.587966666667     0.842600000000     0.723966666667     0          
O        O      0.568200000000     0.892666666667     0.700366666667     0          
O        O      0.514200000000     0.819133333333     0.711800000000     0          
O        O      0.550000000000     0.865866666667     0.765033333333     0          
O        O      0.524166666667     0.809166666667     0.811733333333     0          
O        O      0.547100000000     0.880433333333     0.833333333333     0          
O        O      0.598233333333     0.863133333333     0.810900000000     0          
O        O      0.407800000000     0.703900000000     0.991900000000     0          
O        O      0.412033333333     0.824066666667     0.942700000000     0          
O        O      0.342200000000     0.774000000000     0.966300000000     0          
O        O      0.361733333333     0.847533333333     0.954866666667     0          
O        O      0.350800000000     0.800800000000     0.901633333333     0          
O        O      0.381666666667     0.857500000000     0.854933333333     0          
O        O      0.401766666667     0.803533333333     0.855766666667     0          
O        O      0.370566666667     0.962766666667     0.674766666667     0          
O        O      0.509266666667     0.921300000000     0.942700000000     0          
O        O      0.559333333333     0.901533333333     0.966300000000     0          
O        O      0.485800000000     0.847533333333     0.954866666667     0          
O        O      0.532533333333     0.883333333333     0.901633333333     0          
O        O      0.475833333333     0.857500000000     0.854933333333     0          
O        O      0.529800000000     0.931566666667     0.855766666667     0          
O        O      0.370566666667     0.741133333333     0.674766666667     0          
O        O      0.412033333333     0.921300000000     0.942700000000     0          
O        O      0.431800000000     0.991133333333     0.966300000000     0          
O        O      0.485800000000     0.971600000000     0.954866666667     0          
O        O      0.450000000000     0.982533333333     0.901633333333     0          
O        O      0.475833333333     0.951666666667     0.854933333333     0          
O        O      0.401766666667     0.931566666667     0.855766666667     0          
O        O      0.592200000000     0.962766666667     0.674766666667     0          
O        O      0.559333333333     0.991133333333     0.966300000000     0          
O        O      0.532533333333     0.982533333333     0.901633333333     0          
O        O      0.547100000000     0.666666666667     0.833333333333     0          
O        O      0.342200000000     0.901533333333     0.966300000000     0          
O        O      0.350800000000     0.883333333333     0.901633333333     0          
O        O      0.333333333333     0.880433333333     0.833333333333     0          
O        O      0.431800000000     0.774000000000     0.966300000000     0          
O        O      0.450000000000     0.800800000000     0.901633333333     0          
O        O      0.452900000000     0.786233333333     0.833333333333     0          
O        O      0.657800000000     0.892666666667     0.700366666667     0          
O        O      0.649200000000     0.865866666667     0.765033333333     0          
O        O      0.440666666667     0.765133333333     0.700366666667     0          
O        O      0.467466666667     0.783333333333     0.765033333333     0          
O        O      0.568200000000     0.675533333333     0.700366666667     0          
O        O      0.550000000000     0.684133333333     0.765033333333     0          
O        O      0.824066666667     0.078700000000     0.057300000000     0          
O        O      0.774000000000     0.008866666667     0.033700000000     0          
O        O      0.847533333333     0.028400000000     0.045133333333     0          
O        O      0.800800000000     0.017466666667     0.098366666667     0          
O        O      0.857500000000     0.048333333333     0.145066666667     0          
O        O      0.786233333333     0.000000000000     0.166666666667     0          
O        O      0.803533333333     0.068433333333     0.144233333333     0          
O        O      0.962766666667     0.037233333333     0.325233333333     0          
O        O      0.921300000000     0.078700000000     0.057300000000     0          
O        O      0.991133333333     0.098466666667     0.033700000000     0          
O        O      0.971600000000     0.152466666667     0.045133333333     0          
O        O      0.982533333333     0.116666666667     0.098366666667     0          
O        O      0.951666666667     0.142500000000     0.145066666667     0          
O        O      0.666666666667     0.119566666667     0.166666666667     0          
O        O      0.931566666667     0.068433333333     0.144233333333     0          
O        O      0.962766666667     0.258866666667     0.325233333333     0          
O        O      0.921300000000     0.175933333333     0.057300000000     0          
O        O      0.901533333333     0.226000000000     0.033700000000     0          
O        O      0.847533333333     0.152466666667     0.045133333333     0          
O        O      0.883333333333     0.199200000000     0.098366666667     0          
O        O      0.857500000000     0.142500000000     0.145066666667     0          
O        O      0.880433333333     0.213766666667     0.166666666667     0          
O        O      0.931566666667     0.196466666667     0.144233333333     0          
O        O      0.741133333333     0.037233333333     0.325233333333     0          
O        O      0.745366666667     0.157400000000     0.276033333333     0          
O        O      0.675533333333     0.107333333333     0.299633333333     0          
O        O      0.695066666667     0.180866666667     0.288200000000     0          
O        O      0.684133333333     0.134133333333     0.234966666667     0          
O        O      0.715000000000     0.190833333333     0.188266666667     0          
O        O      0.735100000000     0.136866666667     0.189100000000     0          
O        O      0.703900000000     0.296100000000     0.008100000000     0          
O        O      0.842600000000     0.254633333333     0.276033333333     0          
O        O      0.892666666667     0.234866666667     0.299633333333     0          
O        O      0.819133333333     0.180866666667     0.288200000000     0          
O        O      0.865866666667     0.216666666667     0.234966666667     0          
O        O      0.809166666667     0.190833333333     0.188266666667     0          
O        O      0.863133333333     0.264900000000     0.189100000000     0          
O        O      0.703900000000     0.074466666667     0.008100000000     0          
O        O      0.745366666667     0.254633333333     0.276033333333     0          
O        O      0.765133333333     0.324466666667     0.299633333333     0          
O        O      0.819133333333     0.304933333333     0.288200000000     0          
O        O      0.783333333333     0.315866666667     0.234966666667     0          
O        O      0.809166666667     0.285000000000     0.188266666667     0          
O        O      0.735100000000     0.264900000000     0.189100000000     0          
O        O      0.925533333333     0.296100000000     0.008100000000     0          
O        O      0.892666666667     0.324466666667     0.299633333333     0          
O        O      0.865866666667     0.315866666667     0.234966666667     0          
O        O      0.880433333333     0.000000000000     0.166666666667     0          
O        O      0.675533333333     0.234866666667     0.299633333333     0          
O        O      0.684133333333     0.216666666667     0.234966666667     0          
O        O      0.666666666667     0.213766666667     0.166666666667     0          
O        O      0.765133333333     0.107333333333     0.299633333333     0          
O        O      0.783333333333     0.134133333333     0.234966666667     0          
O        O      0.786233333333     0.119566666667     0.166666666667     0          
O        O      0.991133333333     0.226000000000     0.033700000000     0          
O        O      0.982533333333     0.199200000000     0.098366666667     0          
O        O      0.774000000000     0.098466666667     0.033700000000     0          
O        O      0.800800000000     0.116666666667     0.098366666667     0          
O        O      0.901533333333     0.008866666667     0.033700000000     0          
O        O      0.883333333333     0.017466666667     0.098366666667     0          
O        O      0.824066666667     0.078700000000     0.390633333333     0          
O        O      0.774000000000     0.008866666667     0.367033333333     0          
O        O      0.847533333333     0.028400000000     0.378466666667     0          
O        O      0.800800000000     0.017466666667     0.431700000000     0          
O        O      0.857500000000     0.048333333333     0.478400000000     0          
O        O      0.786233333333     0.000000000000     0.500000000000     0          
O        O      0.803533333333     0.068433333333     0.477566666667     0          
O        O      0.962766666667     0.037233333333     0.658566666667     0          
O        O      0.921300000000     0.078700000000     0.390633333333     0          
O        O      0.991133333333     0.098466666667     0.367033333333     0          
O        O      0.971600000000     0.152466666667     0.378466666667     0          
O        O      0.982533333333     0.116666666667     0.431700000000     0          
O        O      0.951666666667     0.142500000000     0.478400000000     0          
O        O      0.666666666667     0.119566666667     0.500000000000     0          
O        O      0.931566666667     0.068433333333     0.477566666667     0          
O        O      0.962766666667     0.258866666667     0.658566666667     0          
O        O      0.921300000000     0.175933333333     0.390633333333     0          
O        O      0.901533333333     0.226000000000     0.367033333333     0          
O        O      0.847533333333     0.152466666667     0.378466666667     0          
O        O      0.883333333333     0.199200000000     0.431700000000     0          
O        O      0.857500000000     0.142500000000     0.478400000000     0          
O        O      0.880433333333     0.213766666667     0.500000000000     0          
O        O      0.931566666667     0.196466666667     0.477566666667     0          
O        O      0.741133333333     0.037233333333     0.658566666667     0          
O        O      0.745366666667     0.157400000000     0.609366666667     0          
O        O      0.675533333333     0.107333333333     0.632966666667     0          
O        O      0.695066666667     0.180866666667     0.621533333333     0          
O        O      0.684133333333     0.134133333333     0.568300000000     0          
O        O      0.715000000000     0.190833333333     0.521600000000     0          
O        O      0.735100000000     0.136866666667     0.522433333333     0          
O        O      0.703900000000     0.296100000000     0.341433333333     0          
O        O      0.842600000000     0.254633333333     0.609366666667     0          
O        O      0.892666666667     0.234866666667     0.632966666667     0          
O        O      0.819133333333     0.180866666667     0.621533333333     0          
O        O      0.865866666667     0.216666666667     0.568300000000     0          
O        O      0.809166666667     0.190833333333     0.521600000000     0          
O        O      0.863133333333     0.264900000000     0.522433333333     0          
O        O      0.703900000000     0.074466666667     0.341433333333     0          
O        O      0.745366666667     0.254633333333     0.609366666667     0          
O        O      0.765133333333     0.324466666667     0.632966666667     0          
O        O      0.819133333333     0.304933333333     0.621533333333     0          
O        O      0.783333333333     0.315866666667     0.568300000000     0          
O        O      0.809166666667     0.285000000000     0.521600000000     0          
O        O      0.735100000000     0.264900000000     0.522433333333     0          
O        O      0.925533333333     0.296100000000     0.341433333333     0          
O        O      0.892666666667     0.324466666667     0.632966666667     0          
O        O      0.865866666667     0.315866666667     0.568300000000     0          
O        O      0.880433333333     0.000000000000     0.500000000000     0          
O        O      0.675533333333     0.234866666667     0.632966666667     0          
O        O      0.684133333333     0.216666666667     0.568300000000     0          
O        O      0.666666666667     0.213766666667     0.500000000000     0          
O        O      0.765133333333     0.107333333333     0.632966666667     0          
O        O      0.783333333333     0.134133333333     0.568300000000     0          
O        O      0.786233333333     0.119566666667     0.500000000000     0          
O        O      0.991133333333     0.226000000000     0.367033333333     0          
O        O      0.982533333333     0.199200000000     0.431700000000     0          
O        O      0.774000000000     0.098466666667     0.367033333333     0          
O        O      0.800800000000     0.116666666667     0.431700000000     0          
O        O      0.901533333333     0.008866666667     0.367033333333     0          
O        O      0.883333333333     0.017466666667     0.431700000000     0          
O        O      0.824066666667     0.078700000000     0.723966666667     0          
O        O      0.774000000000     0.008866666667     0.700366666667     0          
O        O      0.847533333333     0.028400000000     0.711800000000     0          
O        O      0.800800000000     0.017466666667     0.765033333333     0          
O        O      0.857500000000     0.048333333333     0.811733333333     0          
O        O      0.786233333333     0.000000000000     0.833333333333     0          
O        O      0.803533333333     0.068433333333     0.810900000000     0          
O        O      0.962766666667     0.037233333333     0.991900000000     0          
O        O      0.921300000000     0.078700000000     0.723966666667     0          
O        O      0.991133333333     0.098466666667     0.700366666667     0          
O        O      0.971600000000     0.152466666667     0.711800000000     0          
O        O      0.982533333333     0.116666666667     0.765033333333     0          
O        O      0.951666666667     0.142500000000     0.811733333333     0          
O        O      0.666666666667     0.119566666667     0.833333333333     0          
O        O      0.931566666667     0.068433333333     0.810900000000     0          
O        O      0.962766666667     0.258866666667     0.991900000000     0          
O        O      0.921300000000     0.175933333333     0.723966666667     0          
O        O      0.901533333333     0.226000000000     0.700366666667     0          
O        O      0.847533333333     0.152466666667     0.711800000000     0          
O        O      0.883333333333     0.199200000000     0.765033333333     0          
O        O      0.857500000000     0.142500000000     0.811733333333     0          
O        O      0.880433333333     0.213766666667     0.833333333333     0          
O        O      0.931566666667     0.196466666667     0.810900000000     0          
O        O      0.741133333333     0.037233333333     0.991900000000     0          
O        O      0.745366666667     0.157400000000     0.942700000000     0          
O        O      0.675533333333     0.107333333333     0.966300000000     0          
O        O      0.695066666667     0.180866666667     0.954866666667     0          
O        O      0.684133333333     0.134133333333     0.901633333333     0          
O        O      0.715000000000     0.190833333333     0.854933333333     0          
O        O      0.735100000000     0.136866666667     0.855766666667     0          
O        O      0.703900000000     0.296100000000     0.674766666667     0          
O        O      0.842600000000     0.254633333333     0.942700000000     0          
O        O      0.892666666667     0.234866666667     0.966300000000     0          
O        O      0.819133333333     0.180866666667     0.954866666667     0          
O        O      0.865866666667     0.216666666667     0.901633333333     0          
O        O      0.809166666667     0.190833333333     0.854933333333     0          
O        O      0.863133333333     0.264900000000     0.855766666667     0          
O        O      0.703900000000     0.074466666667     0.674766666667     0          
O        O      0.745366666667     0.254633333333     0.942700000000     0          
O        O      0.765133333333     0.324466666667     0.966300000000     0          
O        O      0.819133333333     0.304933333333     0.954866666667     0          
O        O      0.783333333333     0.315866666667     0.901633333333     0          
O        O      0.809166666667     0.285000000000     0.854933333333     0          
O        O      0.735100000000     0.264900000000     0.855766666667     0          
O        O      0.925533333333     0.296100000000     0.674766666667     0          
O        O      0.892666666667     0.324466666667     0.966300000000     0          
O        O      0.865866666667     0.315866666667     0.901633333333     0          
O        O      0.880433333333     0.000000000000     0.833333333333     0          
O        O      0.675533333333     0.234866666667     0.966300000000     0          
O        O      0.684133333333     0.216666666667     0.901633333333     0          
O        O      0.666666666667     0.213766666667     0.833333333333     0          
O        O      0.765133333333     0.107333333333     0.966300000000     0          
O        O      0.783333333333     0.134133333333     0.901633333333     0          
O        O      0.786233333333     0.119566666667     0.833333333333     0          
O        O      0.991133333333     0.226000000000     0.700366666667     0          
O        O      0.982533333333     0.199200000000     0.765033333333     0          
O        O      0.774000000000     0.098466666667     0.700366666667     0          
O        O      0.800800000000     0.116666666667     0.765033333333     0          
O        O      0.901533333333     0.008866666667     0.700366666667     0          
O        O      0.883333333333     0.017466666667     0.765033333333     0          
O        O      0.824066666667     0.412033333333     0.057300000000     0          
O        O      0.774000000000     0.342200000000     0.033700000000     0          
O        O      0.847533333333     0.361733333333     0.045133333333     0          
O        O      0.800800000000     0.350800000000     0.098366666667     0          
O        O      0.857500000000     0.381666666667     0.145066666667     0          
O        O      0.786233333333     0.333333333333     0.166666666667     0          
O        O      0.803533333333     0.401766666667     0.144233333333     0          
O        O      0.962766666667     0.370566666667     0.325233333333     0          
O        O      0.921300000000     0.412033333333     0.057300000000     0          
O        O      0.991133333333     0.431800000000     0.033700000000     0          
O        O      0.971600000000     0.485800000000     0.045133333333     0          
O        O      0.982533333333     0.450000000000     0.098366666667     0          
O        O      0.951666666667     0.475833333333     0.145066666667     0          
O        O      0.666666666667     0.452900000000     0.166666666667     0          
O        O      0.931566666667     0.401766666667     0.144233333333     0          
O        O      0.962766666667     0.592200000000     0.325233333333     0          
O        O      0.921300000000     0.509266666667     0.057300000000     0          
O        O      0.901533333333     0.559333333333     0.033700000000     0          
O        O      0.847533333333     0.485800000000     0.045133333333     0          
O        O      0.883333333333     0.532533333333     0.098366666667     0          
O        O      0.857500000000     0.475833333333     0.145066666667     0          
O        O      0.880433333333     0.547100000000     0.166666666667     0          
O        O      0.931566666667     0.529800000000     0.144233333333     0          
O        O      0.741133333333     0.370566666667     0.325233333333     0          
O        O      0.745366666667     0.490733333333     0.276033333333     0          
O        O      0.675533333333     0.440666666667     0.299633333333     0          
O        O      0.695066666667     0.514200000000     0.288200000000     0          
O        O      0.684133333333     0.467466666667     0.234966666667     0          
O        O      0.715000000000     0.524166666667     0.188266666667     0          
O        O      0.735100000000     0.470200000000     0.189100000000     0          
O        O      0.703900000000     0.629433333333     0.008100000000     0          
O        O      0.842600000000     0.587966666667     0.276033333333     0          
O        O      0.892666666667     0.568200000000     0.299633333333     0          
O        O      0.819133333333     0.514200000000     0.288200000000     0          
O        O      0.865866666667     0.550000000000     0.234966666667     0          
O        O      0.809166666667     0.524166666667     0.188266666667     0          
O        O      0.863133333333     0.598233333333     0.189100000000     0          
O        O      0.703900000000     0.407800000000     0.008100000000     0          
O        O      0.745366666667     0.587966666667     0.276033333333     0          
O        O      0.765133333333     0.657800000000     0.299633333333     0          
O        O      0.819133333333     0.638266666667     0.288200000000     0          
O        O      0.783333333333     0.649200000000     0.234966666667     0          
O        O      0.809166666667     0.618333333333     0.188266666667     0          
O        O      0.735100000000     0.598233333333     0.189100000000     0          
O        O      0.925533333333     0.629433333333     0.008100000000     0          
O        O      0.892666666667     0.657800000000     0.299633333333     0          
O        O      0.865866666667     0.649200000000     0.234966666667     0          
O        O      0.880433333333     0.333333333333     0.166666666667     0          
O        O      0.675533333333     0.568200000000     0.299633333333     0          
O        O      0.684133333333     0.550000000000     0.234966666667     0          
O        O      0.666666666667     0.547100000000     0.166666666667     0          
O        O      0.765133333333     0.440666666667     0.299633333333     0          
O        O      0.783333333333     0.467466666667     0.234966666667     0          
O        O      0.786233333333     0.452900000000     0.166666666667     0          
O        O      0.991133333333     0.559333333333     0.033700000000     0          
O        O      0.982533333333     0.532533333333     0.098366666667     0          
O        O      0.774000000000     0.431800000000     0.033700000000     0          
O        O      0.800800000000     0.450000000000     0.098366666667     0          
O        O      0.901533333333     0.342200000000     0.033700000000     0          
O        O      0.883333333333     0.350800000000     0.098366666667     0          
O        O      0.824066666667     0.412033333333     0.390633333333     0          
O        O      0.774000000000     0.342200000000     0.367033333333     0          
O        O      0.847533333333     0.361733333333     0.378466666667     0          
O        O      0.800800000000     0.350800000000     0.431700000000     0          
O        O      0.857500000000     0.381666666667     0.478400000000     0          
O        O      0.786233333333     0.333333333333     0.500000000000     0          
O        O      0.803533333333     0.401766666667     0.477566666667     0          
O        O      0.962766666667     0.370566666667     0.658566666667     0          
O        O      0.921300000000     0.412033333333     0.390633333333     0          
O        O      0.991133333333     0.431800000000     0.367033333333     0          
O        O      0.971600000000     0.485800000000     0.378466666667     0          
O        O      0.982533333333     0.450000000000     0.431700000000     0          
O        O      0.951666666667     0.475833333333     0.478400000000     0          
O        O      0.666666666667     0.452900000000     0.500000000000     0          
O        O      0.931566666667     0.401766666667     0.477566666667     0          
O        O      0.962766666667     0.592200000000     0.658566666667     0          
O        O      0.921300000000     0.509266666667     0.390633333333     0          
O        O      0.901533333333     0.559333333333     0.367033333333     0          
O        O      0.847533333333     0.485800000000     0.378466666667     0          
O        O      0.883333333333     0.532533333333     0.431700000000     0          
O        O      0.857500000000     0.475833333333     0.478400000000     0          
O        O      0.880433333333     0.547100000000     0.500000000000     0          
O        O      0.931566666667     0.529800000000     0.477566666667     0          
O        O      0.741133333333     0.370566666667     0.658566666667     0          
O        O      0.745366666667     0.490733333333     0.609366666667     0          
O        O      0.675533333333     0.440666666667     0.632966666667     0          
O        O      0.695066666667     0.514200000000     0.621533333333     0          
O        O      0.684133333333     0.467466666667     0.568300000000     0          
O        O      0.715000000000     0.524166666667     0.521600000000     0          
O        O      0.735100000000     0.470200000000     0.522433333333     0          
O        O      0.703900000000     0.629433333333     0.341433333333     0          
O        O      0.842600000000     0.587966666667     0.609366666667     0          
O        O      0.892666666667     0.568200000000     0.632966666667     0          
O        O      0.819133333333     0.514200000000     0.621533333333     0          
O        O      0.865866666667     0.550000000000     0.568300000000     0          
O        O      0.809166666667     0.524166666667     0.521600000000     0          
O        O      0.863133333333     0.598233333333     0.522433333333     0          
O        O      0.703900000000     0.407800000000     0.341433333333     0          
O        O      0.745366666667     0.587966666667     0.609366666667     0          
O        O      0.765133333333     0.657800000000     0.632966666667     0          
O        O      0.819133333333     0.638266666667     0.621533333333     0          
O        O      0.783333333333     0.649200000000     0.568300000000     0          
O        O      0.809166666667     0.618333333333     0.521600000000     0          
O        O      0.735100000000     0.598233333333     0.522433333333     0          
O        O      0.925533333333     0.629433333333     0.341433333333     0          
O        O      0.892666666667     0.657800000000     0.632966666667     0          
O        O      0.865866666667     0.649200000000     0.568300000000     0          
O        O      0.880433333333     0.333333333333     0.500000000000     0          
O        O      0.675533333333     0.568200000000     0.632966666667     0          
O        O      0.684133333333     0.550000000000     0.568300000000     0          
O        O      0.666666666667     0.547100000000     0.500000000000     0          
O        O      0.765133333333     0.440666666667     0.632966666667     0          
O        O      0.783333333333     0.467466666667     0.568300000000     0          
O        O      0.786233333333     0.452900000000     0.500000000000     0          
O        O      0.991133333333     0.559333333333     0.367033333333     0          
O        O      0.982533333333     0.532533333333     0.431700000000     0          
O        O      0.774000000000     0.431800000000     0.367033333333     0          
O        O      0.800800000000     0.450000000000     0.431700000000     0          
O        O      0.901533333333     0.342200000000     0.367033333333     0          
O        O      0.883333333333     0.350800000000     0.431700000000     0          
O        O      0.824066666667     0.412033333333     0.723966666667     0          
O        O      0.774000000000     0.342200000000     0.700366666667     0          
O        O      0.847533333333     0.361733333333     0.711800000000     0          
O        O      0.800800000000     0.350800000000     0.765033333333     0          
O        O      0.857500000000     0.381666666667     0.811733333333     0          
O        O      0.786233333333     0.333333333333     0.833333333333     0          
O        O      0.803533333333     0.401766666667     0.810900000000     0          
O        O      0.962766666667     0.370566666667     0.991900000000     0          
O        O      0.921300000000     0.412033333333     0.723966666667     0          
O        O      0.991133333333     0.431800000000     0.700366666667     0          
O        O      0.971600000000     0.485800000000     0.711800000000     0          
O        O      0.982533333333     0.450000000000     0.765033333333     0          
O        O      0.951666666667     0.475833333333     0.811733333333     0          
O        O      0.666666666667     0.452900000000     0.833333333333     0          
O        O      0.931566666667     0.401766666667     0.810900000000     0          
O        O      0.962766666667     0.592200000000     0.991900000000     0          
O        O      0.921300000000     0.509266666667     0.723966666667     0          
O        O      0.901533333333     0.559333333333     0.700366666667     0          
O        O      0.847533333333     0.485800000000     0.711800000000     0          
O        O      0.883333333333     0.532533333333     0.765033333333     0          
O        O      0.857500000000     0.475833333333     0.811733333333     0          
O        O      0.880433333333     0.547100000000     0.833333333333     0          
O        O      0.931566666667     0.529800000000     0.810900000000     0          
O        O      0.741133333333     0.370566666667     0.991900000000     0          
O        O      0.745366666667     0.490733333333     0.942700000000     0          
O        O      0.675533333333     0.440666666667     0.966300000000     0          
O        O      0.695066666667     0.514200000000     0.954866666667     0          
O        O      0.684133333333     0.467466666667     0.901633333333     0          
O        O      0.715000000000     0.524166666667     0.854933333333     0          
O        O      0.735100000000     0.470200000000     0.855766666667     0          
O        O      0.703900000000     0.629433333333     0.674766666667     0          
O        O      0.842600000000     0.587966666667     0.942700000000     0          
O        O      0.892666666667     0.568200000000     0.966300000000     0          
O        O      0.819133333333     0.514200000000     0.954866666667     0          
O        O      0.865866666667     0.550000000000     0.901633333333     0          
O        O      0.809166666667     0.524166666667     0.854933333333     0          
O        O      0.863133333333     0.598233333333     0.855766666667     0          
O        O      0.703900000000     0.407800000000     0.674766666667     0          
O        O      0.745366666667     0.587966666667     0.942700000000     0          
O        O      0.765133333333     0.657800000000     0.966300000000     0          
O        O      0.819133333333     0.638266666667     0.954866666667     0          
O        O      0.783333333333     0.649200000000     0.901633333333     0          
O        O      0.809166666667     0.618333333333     0.854933333333     0          
O        O      0.735100000000     0.598233333333     0.855766666667     0          
O        O      0.925533333333     0.629433333333     0.674766666667     0          
O        O      0.892666666667     0.657800000000     0.966300000000     0          
O        O      0.865866666667     0.649200000000     0.901633333333     0          
O        O      0.880433333333     0.333333333333     0.833333333333     0          
O        O      0.675533333333     0.568200000000     0.966300000000     0          
O        O      0.684133333333     0.550000000000     0.901633333333     0          
O        O      0.666666666667     0.547100000000     0.833333333333     0          
O        O      0.765133333333     0.440666666667     0.966300000000     0          
O        O      0.783333333333     0.467466666667     0.901633333333     0          
O        O      0.786233333333     0.452900000000     0.833333333333     0          
O        O      0.991133333333     0.559333333333     0.700366666667     0          
O        O      0.982533333333     0.532533333333     0.765033333333     0          
O        O      0.774000000000     0.431800000000     0.700366666667     0          
O        O      0.800800000000     0.450000000000     0.765033333333     0          
O        O      0.901533333333     0.342200000000     0.700366666667     0          
O        O      0.883333333333     0.350800000000     0.765033333333     0          
O        O      0.824066666667     0.745366666667     0.057300000000     0          
O        O      0.774000000000     0.675533333333     0.033700000000     0          
O        O      0.847533333333     0.695066666667     0.045133333333     0          
O        O      0.800800000000     0.684133333333     0.098366666667     0          
O        O      0.857500000000     0.715000000000     0.145066666667     0          
O        O      0.786233333333     0.666666666667     0.166666666667     0          
O        O      0.803533333333     0.735100000000     0.144233333333     0          
O        O      0.962766666667     0.703900000000     0.325233333333     0          
O        O      0.921300000000     0.745366666667     0.057300000000     0          
O        O      0.991133333333     0.765133333333     0.033700000000     0          
O        O      0.971600000000     0.819133333333     0.045133333333     0          
O        O      0.982533333333     0.783333333333     0.098366666667     0          
O        O      0.951666666667     0.809166666667     0.145066666667     0          
O        O      0.666666666667     0.786233333333     0.166666666667     0          
O        O      0.931566666667     0.735100000000     0.144233333333     0          
O        O      0.962766666667     0.925533333333     0.325233333333     0          
O        O      0.921300000000     0.842600000000     0.057300000000     0          
O        O      0.901533333333     0.892666666667     0.033700000000     0          
O        O      0.847533333333     0.819133333333     0.045133333333     0          
O        O      0.883333333333     0.865866666667     0.098366666667     0          
O        O      0.857500000000     0.809166666667     0.145066666667     0          
O        O      0.880433333333     0.880433333333     0.166666666667     0          
O        O      0.931566666667     0.863133333333     0.144233333333     0          
O        O      0.741133333333     0.703900000000     0.325233333333     0          
O        O      0.745366666667     0.824066666667     0.276033333333     0          
O        O      0.675533333333     0.774000000000     0.299633333333     0          
O        O      0.695066666667     0.847533333333     0.288200000000     0          
O        O      0.684133333333     0.800800000000     0.234966666667     0          
O        O      0.715000000000     0.857500000000     0.188266666667     0          
O        O      0.735100000000     0.803533333333     0.189100000000     0          
O        O      0.703900000000     0.962766666667     0.008100000000     0          
O        O      0.842600000000     0.921300000000     0.276033333333     0          
O        O      0.892666666667     0.901533333333     0.299633333333     0          
O        O      0.819133333333     0.847533333333     0.288200000000     0          
O        O      0.865866666667     0.883333333333     0.234966666667     0          
O        O      0.809166666667     0.857500000000     0.188266666667     0          
O        O      0.863133333333     0.931566666667     0.189100000000     0          
O        O      0.703900000000     0.741133333333     0.008100000000     0          
O        O      0.745366666667     0.921300000000     0.276033333333     0          
O        O      0.765133333333     0.991133333333     0.299633333333     0          
O        O      0.819133333333     0.971600000000     0.288200000000     0          
O        O      0.783333333333     0.982533333333     0.234966666667     0          
O        O      0.809166666667     0.951666666667     0.188266666667     0          
O        O      0.735100000000     0.931566666667     0.189100000000     0          
O        O      0.925533333333     0.962766666667     0.008100000000     0          
O        O      0.892666666667     0.991133333333     0.299633333333     0          
O        O      0.865866666667     0.982533333333     0.234966666667     0          
O        O      0.880433333333     0.666666666667     0.166666666667     0          
O        O      0.675533333333     0.901533333333     0.299633333333     0          
O        O      0.684133333333     0.883333333333     0.234966666667     0          
O        O      0.666666666667     0.880433333333     0.166666666667     0          
O        O      0.765133333333     0.774000000000     0.299633333333     0          
O        O      0.783333333333     0.800800000000     0.234966666667     0          
O        O      0.786233333333     0.786233333333     0.166666666667     0          
O        O      0.991133333333     0.892666666667     0.033700000000     0          
O        O      0.982533333333     0.865866666667     0.098366666667     0          
O        O      0.774000000000     0.765133333333     0.033700000000     0          
O        O      0.800800000000     0.783333333333     0.098366666667     0          
O        O      0.901533333333     0.675533333333     0.033700000000     0          
O        O      0.883333333333     0.684133333333     0.098366666667     0          
O        O      0.824066666667     0.745366666667     0.390633333333     0          
O        O      0.774000000000     0.675533333333     0.367033333333     0          
O        O      0.847533333333     0.695066666667     0.378466666667     0          
O        O      0.800800000000     0.684133333333     0.431700000000     0          
O        O      0.857500000000     0.715000000000     0.478400000000     0          
O        O      0.786233333333     0.666666666667     0.500000000000     0          
O        O      0.803533333333     0.735100000000     0.477566666667     0          
O        O      0.962766666667     0.703900000000     0.658566666667     0          
O        O      0.921300000000     0.745366666667     0.390633333333     0          
O        O      0.991133333333     0.765133333333     0.367033333333     0          
O        O      0.971600000000     0.819133333333     0.378466666667     0          
O        O      0.982533333333     0.783333333333     0.431700000000     0          
O        O      0.951666666667     0.809166666667     0.478400000000     0          
O        O      0.666666666667     0.786233333333     0.500000000000     0          
O        O      0.931566666667     0.735100000000     0.477566666667     0          
O        O      0.962766666667     0.925533333333     0.658566666667     0          
O        O      0.921300000000     0.842600000000     0.390633333333     0          
O        O      0.901533333333     0.892666666667     0.367033333333     0          
O        O      0.847533333333     0.819133333333     0.378466666667     0          
O        O      0.883333333333     0.865866666667     0.431700000000     0          
O        O      0.857500000000     0.809166666667     0.478400000000     0          
O        O      0.880433333333     0.880433333333     0.500000000000     0          
O        O      0.931566666667     0.863133333333     0.477566666667     0          
O        O      0.741133333333     0.703900000000     0.658566666667     0          
O        O      0.745366666667     0.824066666667     0.609366666667     0          
O        O      0.675533333333     0.774000000000     0.632966666667     0          
O        O      0.695066666667     0.847533333333     0.621533333333     0          
O        O      0.684133333333     0.800800000000     0.568300000000     0          
O        O      0.715000000000     0.857500000000     0.521600000000     0          
O        O      0.735100000000     0.803533333333     0.522433333333     0          
O        O      0.703900000000     0.962766666667     0.341433333333     0          
O        O      0.842600000000     0.921300000000     0.609366666667     0          
O        O      0.892666666667     0.901533333333     0.632966666667     0          
O        O      0.819133333333     0.847533333333     0.621533333333     0          
O        O      0.865866666667     0.883333333333     0.568300000000     0          
O        O      0.809166666667     0.857500000000     0.521600000000     0          
O        O      0.863133333333     0.931566666667     0.522433333333     0          
O        O      0.703900000000     0.741133333333     0.341433333333     0          
O        O      0.745366666667     0.921300000000     0.609366666667     0          
O        O      0.765133333333     0.991133333333     0.632966666667     0          
O        O      0.819133333333     0.971600000000     0.621533333333     0          
O        O      0.783333333333     0.982533333333     0.568300000000     0          
O        O      0.809166666667     0.951666666667     0.521600000000     0          
O        O      0.735100000000     0.931566666667     0.522433333333     0          
O        O      0.925533333333     0.962766666667     0.341433333333     0          
O        O      0.892666666667     0.991133333333     0.632966666667     0          
O        O      0.865866666667     0.982533333333     0.568300000000     0          
O        O      0.880433333333     0.666666666667     0.500000000000     0          
O        O      0.675533333333     0.901533333333     0.632966666667     0          
O        O      0.684133333333     0.883333333333     0.568300000000     0          
O        O      0.666666666667     0.880433333333     0.500000000000     0          
O        O      0.765133333333     0.774000000000     0.632966666667     0          
O        O      0.783333333333     0.800800000000     0.568300000000     0          
O        O      0.786233333333     0.786233333333     0.500000000000     0          
O        O      0.991133333333     0.892666666667     0.367033333333     0          
O        O      0.982533333333     0.865866666667     0.431700000000     0          
O        O      0.774000000000     0.765133333333     0.367033333333     0          
O        O      0.800800000000     0.783333333333     0.431700000000     0          
O        O      0.901533333333     0.675533333333     0.367033333333     0          
O        O      0.883333333333     0.684133333333     0.431700000000     0          
O        O      0.824066666667     0.745366666667     0.723966666667     0          
O        O      0.774000000000     0.675533333333     0.700366666667     0          
O        O      0.847533333333     0.695066666667     0.711800000000     0          
O        O      0.800800000000     0.684133333333     0.765033333333     0          
O        O      0.857500000000     0.715000000000     0.811733333333     0          
O        O      0.786233333333     0.666666666667     0.833333333333     0          
O        O      0.803533333333     0.735100000000     0.810900000000     0          
O        O      0.962766666667     0.703900000000     0.991900000000     0          
O        O      0.921300000000     0.745366666667     0.723966666667     0          
O        O      0.991133333333     0.765133333333     0.700366666667     0          
O        O      0.971600000000     0.819133333333     0.711800000000     0          
O        O      0.982533333333     0.783333333333     0.765033333333     0          
O        O      0.951666666667     0.809166666667     0.811733333333     0          
O        O      0.666666666667     0.786233333333     0.833333333333     0          
O        O      0.931566666667     0.735100000000     0.810900000000     0          
O        O      0.962766666667     0.925533333333     0.991900000000     0          
O        O      0.921300000000     0.842600000000     0.723966666667     0          
O        O      0.901533333333     0.892666666667     0.700366666667     0          
O        O      0.847533333333     0.819133333333     0.711800000000     0          
O        O      0.883333333333     0.865866666667     0.765033333333     0          
O        O      0.857500000000     0.809166666667     0.811733333333     0          
O        O      0.880433333333     0.880433333333     0.833333333333     0          
O        O      0.931566666667     0.863133333333     0.810900000000     0          
O        O      0.741133333333     0.703900000000     0.991900000000     0          
O        O      0.745366666667     0.824066666667     0.942700000000     0          
O        O      0.675533333333     0.774000000000     0.966300000000     0          
O        O      0.695066666667     0.847533333333     0.954866666667     0          
O        O      0.684133333333     0.800800000000     0.901633333333     0          
O        O      0.715000000000     0.857500000000     0.854933333333     0          
O        O      0.735100000000     0.803533333333     0.855766666667     0          
O        O      0.703900000000     0.962766666667     0.674766666667     0          
O        O      0.842600000000     0.921300000000     0.942700000000     0          
O        O      0.892666666667     0.901533333333     0.966300000000     0          
O        O      0.819133333333     0.847533333333     0.954866666667     0          
O        O      0.865866666667     0.883333333333     0.901633333333     0          
O        O      0.809166666667     0.857500000000     0.854933333333     0          
O        O      0.863133333333     0.931566666667     0.855766666667     0          
O        O      0.703900000000     0.741133333333     0.674766666667     0          
O        O      0.745366666667     0.921300000000     0.942700000000     0          
O        O      0.765133333333     0.991133333333     0.966300000000     0          
O        O      0.819133333333     0.971600000000     0.954866666667     0          
O        O      0.783333333333     0.982533333333     0.901633333333     0          
O        O      0.809166666667     0.951666666667     0.854933333333     0          
O        O      0.735100000000     0.931566666667     0.855766666667     0          
O        O      0.925533333333     0.962766666667     0.674766666667     0          
O        O      0.892666666667     0.991133333333     0.966300000000     0          
O        O      0.865866666667     0.982533333333     0.901633333333     0          
O        O      0.880433333333     0.666666666667     0.833333333333     0          
O        O      0.675533333333     0.901533333333     0.966300000000     0          
O        O      0.684133333333     0.883333333333     0.901633333333     0          
O        O      0.666666666667     0.880433333333     0.833333333333     0          
O        O      0.765133333333     0.774000000000     0.966300000000     0          
O        O      0.783333333333     0.800800000000     0.901633333333     0          
O        O      0.786233333333     0.786233333333     0.833333333333     0          
O        O      0.991133333333     0.892666666667     0.700366666667     0          
O        O      0.982533333333     0.865866666667     0.765033333333     0          
O        O      0.774000000000     0.765133333333     0.700366666667     0          
O        O      0.800800000000     0.783333333333     0.765033333333     0          
O        O      0.901533333333     0.675533333333     0.700366666667     0          
O        O      0.883333333333     0.684133333333     0.765033333333     0          


