data_zeolite

_audit_creation_method RASPA-1.0
_audit_creation_date 2021-1-20
_audit_author_name ''

_cell_length_a    31.224
_cell_length_b    31.224
_cell_length_c    27.35
_cell_angle_alpha 90
_cell_angle_beta  90
_cell_angle_gamma 90
_cell_volume      26664.6

_symmetry_cell_setting          tetragonal
_symmetry_space_group_name_Hall 'P 1'
_symmetry_space_group_name_H-M  'P 1'
_symmetry_Int_Tables_number     1

_symmetry_equiv_pos_as_xyz 'x,y,z'

loop_
_atom_site_label
_atom_site_type_symbol
_atom_site_fract_x
_atom_site_fract_y
_atom_site_fract_z
_atom_site_charge
O        O      0.042250000000     0.008050000000     0.082500000000     0          
O        O      0.000000000000     0.009550000000     0.396600000000     0          
O        O      0.000000000000     0.187500000000     0.065000000000     0          
O        O      0.000000000000     0.125000000000     0.000000000000     0          
T        Si     0.000000000000     0.136475000000     0.057200000000     0          
T        Si     0.172775000000     0.235275000000     0.875000000000     0          
O        O      0.054450000000     0.229750000000     0.332500000000     0          
O        O      0.052950000000     0.187500000000     0.646600000000     0          
O        O      0.125000000000     0.187500000000     0.315000000000     0          
O        O      0.187500000000     0.187500000000     0.250000000000     0          
T        Si     0.176025000000     0.187500000000     0.307200000000     0          
T        Si     0.077225000000     0.110275000000     0.125000000000     0          
O        O      0.082750000000     0.241950000000     0.582500000000     0          
O        O      0.125000000000     0.240450000000     0.896600000000     0          
O        O      0.125000000000     0.062500000000     0.565000000000     0          
O        O      0.125000000000     0.125000000000     0.500000000000     0          
T        Si     0.125000000000     0.113525000000     0.557200000000     0          
T        Si     0.202225000000     0.014725000000     0.375000000000     0          
O        O      0.070550000000     0.020250000000     0.832500000000     0          
O        O      0.072050000000     0.062500000000     0.146600000000     0          
O        O      0.000000000000     0.062500000000     0.815000000000     0          
O        O      0.187500000000     0.062500000000     0.750000000000     0          
T        Si     0.198975000000     0.062500000000     0.807200000000     0          
T        Si     0.047775000000     0.139725000000     0.625000000000     0          
O        O      0.042250000000     0.241950000000     0.917500000000     0          
O        O      0.000000000000     0.240450000000     0.603400000000     0          
O        O      0.000000000000     0.062500000000     0.935000000000     0          
T        Si     0.000000000000     0.113525000000     0.942800000000     0          
T        Si     0.172775000000     0.014725000000     0.125000000000     0          
O        O      0.070550000000     0.229750000000     0.167500000000     0          
O        O      0.072050000000     0.187500000000     0.853400000000     0          
O        O      0.000000000000     0.187500000000     0.185000000000     0          
T        Si     0.198975000000     0.187500000000     0.192800000000     0          
T        Si     0.047775000000     0.110275000000     0.375000000000     0          
O        O      0.082750000000     0.008050000000     0.417500000000     0          
O        O      0.125000000000     0.009550000000     0.103400000000     0          
O        O      0.125000000000     0.187500000000     0.435000000000     0          
T        Si     0.125000000000     0.136475000000     0.442800000000     0          
T        Si     0.202225000000     0.235275000000     0.625000000000     0          
O        O      0.054450000000     0.020250000000     0.667500000000     0          
O        O      0.052950000000     0.062500000000     0.353400000000     0          
O        O      0.125000000000     0.062500000000     0.685000000000     0          
T        Si     0.176025000000     0.062500000000     0.692800000000     0          
T        Si     0.077225000000     0.139725000000     0.875000000000     0          
O        O      0.207750000000     0.241950000000     0.917500000000     0          
T        Si     0.077225000000     0.014725000000     0.125000000000     0          
O        O      0.195550000000     0.020250000000     0.667500000000     0          
O        O      0.197050000000     0.062500000000     0.353400000000     0          
O        O      0.062500000000     0.062500000000     0.750000000000     0          
T        Si     0.073975000000     0.062500000000     0.692800000000     0          
T        Si     0.172775000000     0.139725000000     0.875000000000     0          
O        O      0.167250000000     0.008050000000     0.417500000000     0          
T        Si     0.047775000000     0.235275000000     0.625000000000     0          
O        O      0.179450000000     0.229750000000     0.167500000000     0          
O        O      0.177950000000     0.187500000000     0.853400000000     0          
O        O      0.062500000000     0.187500000000     0.250000000000     0          
T        Si     0.051025000000     0.187500000000     0.192800000000     0          
T        Si     0.202225000000     0.110275000000     0.375000000000     0          
O        O      0.207750000000     0.008050000000     0.082500000000     0          
T        Si     0.077225000000     0.235275000000     0.875000000000     0          
O        O      0.179450000000     0.020250000000     0.832500000000     0          
O        O      0.177950000000     0.062500000000     0.146600000000     0          
T        Si     0.051025000000     0.062500000000     0.807200000000     0          
T        Si     0.202225000000     0.139725000000     0.625000000000     0          
O        O      0.167250000000     0.241950000000     0.582500000000     0          
T        Si     0.047775000000     0.014725000000     0.375000000000     0          
O        O      0.195550000000     0.229750000000     0.332500000000     0          
O        O      0.197050000000     0.187500000000     0.646600000000     0          
T        Si     0.073975000000     0.187500000000     0.307200000000     0          
T        Si     0.172775000000     0.110275000000     0.125000000000     0          
O        O      0.167250000000     0.133050000000     0.582500000000     0          
O        O      0.125000000000     0.134550000000     0.896600000000     0          
O        O      0.125000000000     0.000000000000     0.500000000000     0          
T        Si     0.125000000000     0.011475000000     0.557200000000     0          
O        O      0.179450000000     0.104750000000     0.832500000000     0          
O        O      0.207750000000     0.116950000000     0.082500000000     0          
O        O      0.000000000000     0.115450000000     0.396600000000     0          
O        O      0.000000000000     0.000000000000     0.000000000000     0          
T        Si     0.000000000000     0.238525000000     0.057200000000     0          
O        O      0.195550000000     0.145250000000     0.332500000000     0          
O        O      0.167250000000     0.116950000000     0.417500000000     0          
O        O      0.125000000000     0.115450000000     0.103400000000     0          
T        Si     0.125000000000     0.238525000000     0.442800000000     0          
O        O      0.195550000000     0.104750000000     0.667500000000     0          
O        O      0.207750000000     0.133050000000     0.917500000000     0          
O        O      0.000000000000     0.134550000000     0.603400000000     0          
T        Si     0.000000000000     0.011475000000     0.942800000000     0          
O        O      0.179450000000     0.145250000000     0.167500000000     0          
O        O      0.082750000000     0.116950000000     0.417500000000     0          
O        O      0.070550000000     0.145250000000     0.167500000000     0          
O        O      0.042250000000     0.133050000000     0.917500000000     0          
O        O      0.054450000000     0.104750000000     0.667500000000     0          
O        O      0.082750000000     0.133050000000     0.582500000000     0          
O        O      0.054450000000     0.145250000000     0.332500000000     0          
O        O      0.042250000000     0.116950000000     0.082500000000     0          
O        O      0.070550000000     0.104750000000     0.832500000000     0          
O        O      0.042250000000     0.258050000000     0.082500000000     0          
O        O      0.000000000000     0.259550000000     0.396600000000     0          
O        O      0.000000000000     0.437500000000     0.065000000000     0          
O        O      0.000000000000     0.375000000000     0.000000000000     0          
T        Si     0.000000000000     0.386475000000     0.057200000000     0          
T        Si     0.172775000000     0.485275000000     0.875000000000     0          
O        O      0.054450000000     0.479750000000     0.332500000000     0          
O        O      0.052950000000     0.437500000000     0.646600000000     0          
O        O      0.125000000000     0.437500000000     0.315000000000     0          
O        O      0.187500000000     0.437500000000     0.250000000000     0          
T        Si     0.176025000000     0.437500000000     0.307200000000     0          
T        Si     0.077225000000     0.360275000000     0.125000000000     0          
O        O      0.082750000000     0.491950000000     0.582500000000     0          
O        O      0.125000000000     0.490450000000     0.896600000000     0          
O        O      0.125000000000     0.312500000000     0.565000000000     0          
O        O      0.125000000000     0.375000000000     0.500000000000     0          
T        Si     0.125000000000     0.363525000000     0.557200000000     0          
T        Si     0.202225000000     0.264725000000     0.375000000000     0          
O        O      0.070550000000     0.270250000000     0.832500000000     0          
O        O      0.072050000000     0.312500000000     0.146600000000     0          
O        O      0.000000000000     0.312500000000     0.815000000000     0          
O        O      0.187500000000     0.312500000000     0.750000000000     0          
T        Si     0.198975000000     0.312500000000     0.807200000000     0          
T        Si     0.047775000000     0.389725000000     0.625000000000     0          
O        O      0.042250000000     0.491950000000     0.917500000000     0          
O        O      0.000000000000     0.490450000000     0.603400000000     0          
O        O      0.000000000000     0.312500000000     0.935000000000     0          
T        Si     0.000000000000     0.363525000000     0.942800000000     0          
T        Si     0.172775000000     0.264725000000     0.125000000000     0          
O        O      0.070550000000     0.479750000000     0.167500000000     0          
O        O      0.072050000000     0.437500000000     0.853400000000     0          
O        O      0.000000000000     0.437500000000     0.185000000000     0          
T        Si     0.198975000000     0.437500000000     0.192800000000     0          
T        Si     0.047775000000     0.360275000000     0.375000000000     0          
O        O      0.082750000000     0.258050000000     0.417500000000     0          
O        O      0.125000000000     0.259550000000     0.103400000000     0          
O        O      0.125000000000     0.437500000000     0.435000000000     0          
T        Si     0.125000000000     0.386475000000     0.442800000000     0          
T        Si     0.202225000000     0.485275000000     0.625000000000     0          
O        O      0.054450000000     0.270250000000     0.667500000000     0          
O        O      0.052950000000     0.312500000000     0.353400000000     0          
O        O      0.125000000000     0.312500000000     0.685000000000     0          
T        Si     0.176025000000     0.312500000000     0.692800000000     0          
T        Si     0.077225000000     0.389725000000     0.875000000000     0          
O        O      0.207750000000     0.491950000000     0.917500000000     0          
T        Si     0.077225000000     0.264725000000     0.125000000000     0          
O        O      0.195550000000     0.270250000000     0.667500000000     0          
O        O      0.197050000000     0.312500000000     0.353400000000     0          
O        O      0.062500000000     0.312500000000     0.750000000000     0          
T        Si     0.073975000000     0.312500000000     0.692800000000     0          
T        Si     0.172775000000     0.389725000000     0.875000000000     0          
O        O      0.167250000000     0.258050000000     0.417500000000     0          
T        Si     0.047775000000     0.485275000000     0.625000000000     0          
O        O      0.179450000000     0.479750000000     0.167500000000     0          
O        O      0.177950000000     0.437500000000     0.853400000000     0          
O        O      0.062500000000     0.437500000000     0.250000000000     0          
T        Si     0.051025000000     0.437500000000     0.192800000000     0          
T        Si     0.202225000000     0.360275000000     0.375000000000     0          
O        O      0.207750000000     0.258050000000     0.082500000000     0          
T        Si     0.077225000000     0.485275000000     0.875000000000     0          
O        O      0.179450000000     0.270250000000     0.832500000000     0          
O        O      0.177950000000     0.312500000000     0.146600000000     0          
T        Si     0.051025000000     0.312500000000     0.807200000000     0          
T        Si     0.202225000000     0.389725000000     0.625000000000     0          
O        O      0.167250000000     0.491950000000     0.582500000000     0          
T        Si     0.047775000000     0.264725000000     0.375000000000     0          
O        O      0.195550000000     0.479750000000     0.332500000000     0          
O        O      0.197050000000     0.437500000000     0.646600000000     0          
T        Si     0.073975000000     0.437500000000     0.307200000000     0          
T        Si     0.172775000000     0.360275000000     0.125000000000     0          
O        O      0.167250000000     0.383050000000     0.582500000000     0          
O        O      0.125000000000     0.384550000000     0.896600000000     0          
O        O      0.125000000000     0.250000000000     0.500000000000     0          
T        Si     0.125000000000     0.261475000000     0.557200000000     0          
O        O      0.179450000000     0.354750000000     0.832500000000     0          
O        O      0.207750000000     0.366950000000     0.082500000000     0          
O        O      0.000000000000     0.365450000000     0.396600000000     0          
O        O      0.000000000000     0.250000000000     0.000000000000     0          
T        Si     0.000000000000     0.488525000000     0.057200000000     0          
O        O      0.195550000000     0.395250000000     0.332500000000     0          
O        O      0.167250000000     0.366950000000     0.417500000000     0          
O        O      0.125000000000     0.365450000000     0.103400000000     0          
T        Si     0.125000000000     0.488525000000     0.442800000000     0          
O        O      0.195550000000     0.354750000000     0.667500000000     0          
O        O      0.207750000000     0.383050000000     0.917500000000     0          
O        O      0.000000000000     0.384550000000     0.603400000000     0          
T        Si     0.000000000000     0.261475000000     0.942800000000     0          
O        O      0.179450000000     0.395250000000     0.167500000000     0          
O        O      0.082750000000     0.366950000000     0.417500000000     0          
O        O      0.070550000000     0.395250000000     0.167500000000     0          
O        O      0.042250000000     0.383050000000     0.917500000000     0          
O        O      0.054450000000     0.354750000000     0.667500000000     0          
O        O      0.082750000000     0.383050000000     0.582500000000     0          
O        O      0.054450000000     0.395250000000     0.332500000000     0          
O        O      0.042250000000     0.366950000000     0.082500000000     0          
O        O      0.070550000000     0.354750000000     0.832500000000     0          
O        O      0.042250000000     0.508050000000     0.082500000000     0          
O        O      0.000000000000     0.509550000000     0.396600000000     0          
O        O      0.000000000000     0.687500000000     0.065000000000     0          
O        O      0.000000000000     0.625000000000     0.000000000000     0          
T        Si     0.000000000000     0.636475000000     0.057200000000     0          
T        Si     0.172775000000     0.735275000000     0.875000000000     0          
O        O      0.054450000000     0.729750000000     0.332500000000     0          
O        O      0.052950000000     0.687500000000     0.646600000000     0          
O        O      0.125000000000     0.687500000000     0.315000000000     0          
O        O      0.187500000000     0.687500000000     0.250000000000     0          
T        Si     0.176025000000     0.687500000000     0.307200000000     0          
T        Si     0.077225000000     0.610275000000     0.125000000000     0          
O        O      0.082750000000     0.741950000000     0.582500000000     0          
O        O      0.125000000000     0.740450000000     0.896600000000     0          
O        O      0.125000000000     0.562500000000     0.565000000000     0          
O        O      0.125000000000     0.625000000000     0.500000000000     0          
T        Si     0.125000000000     0.613525000000     0.557200000000     0          
T        Si     0.202225000000     0.514725000000     0.375000000000     0          
O        O      0.070550000000     0.520250000000     0.832500000000     0          
O        O      0.072050000000     0.562500000000     0.146600000000     0          
O        O      0.000000000000     0.562500000000     0.815000000000     0          
O        O      0.187500000000     0.562500000000     0.750000000000     0          
T        Si     0.198975000000     0.562500000000     0.807200000000     0          
T        Si     0.047775000000     0.639725000000     0.625000000000     0          
O        O      0.042250000000     0.741950000000     0.917500000000     0          
O        O      0.000000000000     0.740450000000     0.603400000000     0          
O        O      0.000000000000     0.562500000000     0.935000000000     0          
T        Si     0.000000000000     0.613525000000     0.942800000000     0          
T        Si     0.172775000000     0.514725000000     0.125000000000     0          
O        O      0.070550000000     0.729750000000     0.167500000000     0          
O        O      0.072050000000     0.687500000000     0.853400000000     0          
O        O      0.000000000000     0.687500000000     0.185000000000     0          
T        Si     0.198975000000     0.687500000000     0.192800000000     0          
T        Si     0.047775000000     0.610275000000     0.375000000000     0          
O        O      0.082750000000     0.508050000000     0.417500000000     0          
O        O      0.125000000000     0.509550000000     0.103400000000     0          
O        O      0.125000000000     0.687500000000     0.435000000000     0          
T        Si     0.125000000000     0.636475000000     0.442800000000     0          
T        Si     0.202225000000     0.735275000000     0.625000000000     0          
O        O      0.054450000000     0.520250000000     0.667500000000     0          
O        O      0.052950000000     0.562500000000     0.353400000000     0          
O        O      0.125000000000     0.562500000000     0.685000000000     0          
T        Si     0.176025000000     0.562500000000     0.692800000000     0          
T        Si     0.077225000000     0.639725000000     0.875000000000     0          
O        O      0.207750000000     0.741950000000     0.917500000000     0          
T        Si     0.077225000000     0.514725000000     0.125000000000     0          
O        O      0.195550000000     0.520250000000     0.667500000000     0          
O        O      0.197050000000     0.562500000000     0.353400000000     0          
O        O      0.062500000000     0.562500000000     0.750000000000     0          
T        Si     0.073975000000     0.562500000000     0.692800000000     0          
T        Si     0.172775000000     0.639725000000     0.875000000000     0          
O        O      0.167250000000     0.508050000000     0.417500000000     0          
T        Si     0.047775000000     0.735275000000     0.625000000000     0          
O        O      0.179450000000     0.729750000000     0.167500000000     0          
O        O      0.177950000000     0.687500000000     0.853400000000     0          
O        O      0.062500000000     0.687500000000     0.250000000000     0          
T        Si     0.051025000000     0.687500000000     0.192800000000     0          
T        Si     0.202225000000     0.610275000000     0.375000000000     0          
O        O      0.207750000000     0.508050000000     0.082500000000     0          
T        Si     0.077225000000     0.735275000000     0.875000000000     0          
O        O      0.179450000000     0.520250000000     0.832500000000     0          
O        O      0.177950000000     0.562500000000     0.146600000000     0          
T        Si     0.051025000000     0.562500000000     0.807200000000     0          
T        Si     0.202225000000     0.639725000000     0.625000000000     0          
O        O      0.167250000000     0.741950000000     0.582500000000     0          
T        Si     0.047775000000     0.514725000000     0.375000000000     0          
O        O      0.195550000000     0.729750000000     0.332500000000     0          
O        O      0.197050000000     0.687500000000     0.646600000000     0          
T        Si     0.073975000000     0.687500000000     0.307200000000     0          
T        Si     0.172775000000     0.610275000000     0.125000000000     0          
O        O      0.167250000000     0.633050000000     0.582500000000     0          
O        O      0.125000000000     0.634550000000     0.896600000000     0          
O        O      0.125000000000     0.500000000000     0.500000000000     0          
T        Si     0.125000000000     0.511475000000     0.557200000000     0          
O        O      0.179450000000     0.604750000000     0.832500000000     0          
O        O      0.207750000000     0.616950000000     0.082500000000     0          
O        O      0.000000000000     0.615450000000     0.396600000000     0          
O        O      0.000000000000     0.500000000000     0.000000000000     0          
T        Si     0.000000000000     0.738525000000     0.057200000000     0          
O        O      0.195550000000     0.645250000000     0.332500000000     0          
O        O      0.167250000000     0.616950000000     0.417500000000     0          
O        O      0.125000000000     0.615450000000     0.103400000000     0          
T        Si     0.125000000000     0.738525000000     0.442800000000     0          
O        O      0.195550000000     0.604750000000     0.667500000000     0          
O        O      0.207750000000     0.633050000000     0.917500000000     0          
O        O      0.000000000000     0.634550000000     0.603400000000     0          
T        Si     0.000000000000     0.511475000000     0.942800000000     0          
O        O      0.179450000000     0.645250000000     0.167500000000     0          
O        O      0.082750000000     0.616950000000     0.417500000000     0          
O        O      0.070550000000     0.645250000000     0.167500000000     0          
O        O      0.042250000000     0.633050000000     0.917500000000     0          
O        O      0.054450000000     0.604750000000     0.667500000000     0          
O        O      0.082750000000     0.633050000000     0.582500000000     0          
O        O      0.054450000000     0.645250000000     0.332500000000     0          
O        O      0.042250000000     0.616950000000     0.082500000000     0          
O        O      0.070550000000     0.604750000000     0.832500000000     0          
O        O      0.042250000000     0.758050000000     0.082500000000     0          
O        O      0.000000000000     0.759550000000     0.396600000000     0          
O        O      0.000000000000     0.937500000000     0.065000000000     0          
O        O      0.000000000000     0.875000000000     0.000000000000     0          
T        Si     0.000000000000     0.886475000000     0.057200000000     0          
T        Si     0.172775000000     0.985275000000     0.875000000000     0          
O        O      0.054450000000     0.979750000000     0.332500000000     0          
O        O      0.052950000000     0.937500000000     0.646600000000     0          
O        O      0.125000000000     0.937500000000     0.315000000000     0          
O        O      0.187500000000     0.937500000000     0.250000000000     0          
T        Si     0.176025000000     0.937500000000     0.307200000000     0          
T        Si     0.077225000000     0.860275000000     0.125000000000     0          
O        O      0.082750000000     0.991950000000     0.582500000000     0          
O        O      0.125000000000     0.990450000000     0.896600000000     0          
O        O      0.125000000000     0.812500000000     0.565000000000     0          
O        O      0.125000000000     0.875000000000     0.500000000000     0          
T        Si     0.125000000000     0.863525000000     0.557200000000     0          
T        Si     0.202225000000     0.764725000000     0.375000000000     0          
O        O      0.070550000000     0.770250000000     0.832500000000     0          
O        O      0.072050000000     0.812500000000     0.146600000000     0          
O        O      0.000000000000     0.812500000000     0.815000000000     0          
O        O      0.187500000000     0.812500000000     0.750000000000     0          
T        Si     0.198975000000     0.812500000000     0.807200000000     0          
T        Si     0.047775000000     0.889725000000     0.625000000000     0          
O        O      0.042250000000     0.991950000000     0.917500000000     0          
O        O      0.000000000000     0.990450000000     0.603400000000     0          
O        O      0.000000000000     0.812500000000     0.935000000000     0          
T        Si     0.000000000000     0.863525000000     0.942800000000     0          
T        Si     0.172775000000     0.764725000000     0.125000000000     0          
O        O      0.070550000000     0.979750000000     0.167500000000     0          
O        O      0.072050000000     0.937500000000     0.853400000000     0          
O        O      0.000000000000     0.937500000000     0.185000000000     0          
T        Si     0.198975000000     0.937500000000     0.192800000000     0          
T        Si     0.047775000000     0.860275000000     0.375000000000     0          
O        O      0.082750000000     0.758050000000     0.417500000000     0          
O        O      0.125000000000     0.759550000000     0.103400000000     0          
O        O      0.125000000000     0.937500000000     0.435000000000     0          
T        Si     0.125000000000     0.886475000000     0.442800000000     0          
T        Si     0.202225000000     0.985275000000     0.625000000000     0          
O        O      0.054450000000     0.770250000000     0.667500000000     0          
O        O      0.052950000000     0.812500000000     0.353400000000     0          
O        O      0.125000000000     0.812500000000     0.685000000000     0          
T        Si     0.176025000000     0.812500000000     0.692800000000     0          
T        Si     0.077225000000     0.889725000000     0.875000000000     0          
O        O      0.207750000000     0.991950000000     0.917500000000     0          
T        Si     0.077225000000     0.764725000000     0.125000000000     0          
O        O      0.195550000000     0.770250000000     0.667500000000     0          
O        O      0.197050000000     0.812500000000     0.353400000000     0          
O        O      0.062500000000     0.812500000000     0.750000000000     0          
T        Si     0.073975000000     0.812500000000     0.692800000000     0          
T        Si     0.172775000000     0.889725000000     0.875000000000     0          
O        O      0.167250000000     0.758050000000     0.417500000000     0          
T        Si     0.047775000000     0.985275000000     0.625000000000     0          
O        O      0.179450000000     0.979750000000     0.167500000000     0          
O        O      0.177950000000     0.937500000000     0.853400000000     0          
O        O      0.062500000000     0.937500000000     0.250000000000     0          
T        Si     0.051025000000     0.937500000000     0.192800000000     0          
T        Si     0.202225000000     0.860275000000     0.375000000000     0          
O        O      0.207750000000     0.758050000000     0.082500000000     0          
T        Si     0.077225000000     0.985275000000     0.875000000000     0          
O        O      0.179450000000     0.770250000000     0.832500000000     0          
O        O      0.177950000000     0.812500000000     0.146600000000     0          
T        Si     0.051025000000     0.812500000000     0.807200000000     0          
T        Si     0.202225000000     0.889725000000     0.625000000000     0          
O        O      0.167250000000     0.991950000000     0.582500000000     0          
T        Si     0.047775000000     0.764725000000     0.375000000000     0          
O        O      0.195550000000     0.979750000000     0.332500000000     0          
O        O      0.197050000000     0.937500000000     0.646600000000     0          
T        Si     0.073975000000     0.937500000000     0.307200000000     0          
T        Si     0.172775000000     0.860275000000     0.125000000000     0          
O        O      0.167250000000     0.883050000000     0.582500000000     0          
O        O      0.125000000000     0.884550000000     0.896600000000     0          
O        O      0.125000000000     0.750000000000     0.500000000000     0          
T        Si     0.125000000000     0.761475000000     0.557200000000     0          
O        O      0.179450000000     0.854750000000     0.832500000000     0          
O        O      0.207750000000     0.866950000000     0.082500000000     0          
O        O      0.000000000000     0.865450000000     0.396600000000     0          
O        O      0.000000000000     0.750000000000     0.000000000000     0          
T        Si     0.000000000000     0.988525000000     0.057200000000     0          
O        O      0.195550000000     0.895250000000     0.332500000000     0          
O        O      0.167250000000     0.866950000000     0.417500000000     0          
O        O      0.125000000000     0.865450000000     0.103400000000     0          
T        Si     0.125000000000     0.988525000000     0.442800000000     0          
O        O      0.195550000000     0.854750000000     0.667500000000     0          
O        O      0.207750000000     0.883050000000     0.917500000000     0          
O        O      0.000000000000     0.884550000000     0.603400000000     0          
T        Si     0.000000000000     0.761475000000     0.942800000000     0          
O        O      0.179450000000     0.895250000000     0.167500000000     0          
O        O      0.082750000000     0.866950000000     0.417500000000     0          
O        O      0.070550000000     0.895250000000     0.167500000000     0          
O        O      0.042250000000     0.883050000000     0.917500000000     0          
O        O      0.054450000000     0.854750000000     0.667500000000     0          
O        O      0.082750000000     0.883050000000     0.582500000000     0          
O        O      0.054450000000     0.895250000000     0.332500000000     0          
O        O      0.042250000000     0.866950000000     0.082500000000     0          
O        O      0.070550000000     0.854750000000     0.832500000000     0          
O        O      0.292250000000     0.008050000000     0.082500000000     0          
O        O      0.250000000000     0.009550000000     0.396600000000     0          
O        O      0.250000000000     0.187500000000     0.065000000000     0          
O        O      0.250000000000     0.125000000000     0.000000000000     0          
T        Si     0.250000000000     0.136475000000     0.057200000000     0          
T        Si     0.422775000000     0.235275000000     0.875000000000     0          
O        O      0.304450000000     0.229750000000     0.332500000000     0          
O        O      0.302950000000     0.187500000000     0.646600000000     0          
O        O      0.375000000000     0.187500000000     0.315000000000     0          
O        O      0.437500000000     0.187500000000     0.250000000000     0          
T        Si     0.426025000000     0.187500000000     0.307200000000     0          
T        Si     0.327225000000     0.110275000000     0.125000000000     0          
O        O      0.332750000000     0.241950000000     0.582500000000     0          
O        O      0.375000000000     0.240450000000     0.896600000000     0          
O        O      0.375000000000     0.062500000000     0.565000000000     0          
O        O      0.375000000000     0.125000000000     0.500000000000     0          
T        Si     0.375000000000     0.113525000000     0.557200000000     0          
T        Si     0.452225000000     0.014725000000     0.375000000000     0          
O        O      0.320550000000     0.020250000000     0.832500000000     0          
O        O      0.322050000000     0.062500000000     0.146600000000     0          
O        O      0.250000000000     0.062500000000     0.815000000000     0          
O        O      0.437500000000     0.062500000000     0.750000000000     0          
T        Si     0.448975000000     0.062500000000     0.807200000000     0          
T        Si     0.297775000000     0.139725000000     0.625000000000     0          
O        O      0.292250000000     0.241950000000     0.917500000000     0          
O        O      0.250000000000     0.240450000000     0.603400000000     0          
O        O      0.250000000000     0.062500000000     0.935000000000     0          
T        Si     0.250000000000     0.113525000000     0.942800000000     0          
T        Si     0.422775000000     0.014725000000     0.125000000000     0          
O        O      0.320550000000     0.229750000000     0.167500000000     0          
O        O      0.322050000000     0.187500000000     0.853400000000     0          
O        O      0.250000000000     0.187500000000     0.185000000000     0          
T        Si     0.448975000000     0.187500000000     0.192800000000     0          
T        Si     0.297775000000     0.110275000000     0.375000000000     0          
O        O      0.332750000000     0.008050000000     0.417500000000     0          
O        O      0.375000000000     0.009550000000     0.103400000000     0          
O        O      0.375000000000     0.187500000000     0.435000000000     0          
T        Si     0.375000000000     0.136475000000     0.442800000000     0          
T        Si     0.452225000000     0.235275000000     0.625000000000     0          
O        O      0.304450000000     0.020250000000     0.667500000000     0          
O        O      0.302950000000     0.062500000000     0.353400000000     0          
O        O      0.375000000000     0.062500000000     0.685000000000     0          
T        Si     0.426025000000     0.062500000000     0.692800000000     0          
T        Si     0.327225000000     0.139725000000     0.875000000000     0          
O        O      0.457750000000     0.241950000000     0.917500000000     0          
T        Si     0.327225000000     0.014725000000     0.125000000000     0          
O        O      0.445550000000     0.020250000000     0.667500000000     0          
O        O      0.447050000000     0.062500000000     0.353400000000     0          
O        O      0.312500000000     0.062500000000     0.750000000000     0          
T        Si     0.323975000000     0.062500000000     0.692800000000     0          
T        Si     0.422775000000     0.139725000000     0.875000000000     0          
O        O      0.417250000000     0.008050000000     0.417500000000     0          
T        Si     0.297775000000     0.235275000000     0.625000000000     0          
O        O      0.429450000000     0.229750000000     0.167500000000     0          
O        O      0.427950000000     0.187500000000     0.853400000000     0          
O        O      0.312500000000     0.187500000000     0.250000000000     0          
T        Si     0.301025000000     0.187500000000     0.192800000000     0          
T        Si     0.452225000000     0.110275000000     0.375000000000     0          
O        O      0.457750000000     0.008050000000     0.082500000000     0          
T        Si     0.327225000000     0.235275000000     0.875000000000     0          
O        O      0.429450000000     0.020250000000     0.832500000000     0          
O        O      0.427950000000     0.062500000000     0.146600000000     0          
T        Si     0.301025000000     0.062500000000     0.807200000000     0          
T        Si     0.452225000000     0.139725000000     0.625000000000     0          
O        O      0.417250000000     0.241950000000     0.582500000000     0          
T        Si     0.297775000000     0.014725000000     0.375000000000     0          
O        O      0.445550000000     0.229750000000     0.332500000000     0          
O        O      0.447050000000     0.187500000000     0.646600000000     0          
T        Si     0.323975000000     0.187500000000     0.307200000000     0          
T        Si     0.422775000000     0.110275000000     0.125000000000     0          
O        O      0.417250000000     0.133050000000     0.582500000000     0          
O        O      0.375000000000     0.134550000000     0.896600000000     0          
O        O      0.375000000000     0.000000000000     0.500000000000     0          
T        Si     0.375000000000     0.011475000000     0.557200000000     0          
O        O      0.429450000000     0.104750000000     0.832500000000     0          
O        O      0.457750000000     0.116950000000     0.082500000000     0          
O        O      0.250000000000     0.115450000000     0.396600000000     0          
O        O      0.250000000000     0.000000000000     0.000000000000     0          
T        Si     0.250000000000     0.238525000000     0.057200000000     0          
O        O      0.445550000000     0.145250000000     0.332500000000     0          
O        O      0.417250000000     0.116950000000     0.417500000000     0          
O        O      0.375000000000     0.115450000000     0.103400000000     0          
T        Si     0.375000000000     0.238525000000     0.442800000000     0          
O        O      0.445550000000     0.104750000000     0.667500000000     0          
O        O      0.457750000000     0.133050000000     0.917500000000     0          
O        O      0.250000000000     0.134550000000     0.603400000000     0          
T        Si     0.250000000000     0.011475000000     0.942800000000     0          
O        O      0.429450000000     0.145250000000     0.167500000000     0          
O        O      0.332750000000     0.116950000000     0.417500000000     0          
O        O      0.320550000000     0.145250000000     0.167500000000     0          
O        O      0.292250000000     0.133050000000     0.917500000000     0          
O        O      0.304450000000     0.104750000000     0.667500000000     0          
O        O      0.332750000000     0.133050000000     0.582500000000     0          
O        O      0.304450000000     0.145250000000     0.332500000000     0          
O        O      0.292250000000     0.116950000000     0.082500000000     0          
O        O      0.320550000000     0.104750000000     0.832500000000     0          
O        O      0.292250000000     0.258050000000     0.082500000000     0          
O        O      0.250000000000     0.259550000000     0.396600000000     0          
O        O      0.250000000000     0.437500000000     0.065000000000     0          
O        O      0.250000000000     0.375000000000     0.000000000000     0          
T        Si     0.250000000000     0.386475000000     0.057200000000     0          
T        Si     0.422775000000     0.485275000000     0.875000000000     0          
O        O      0.304450000000     0.479750000000     0.332500000000     0          
O        O      0.302950000000     0.437500000000     0.646600000000     0          
O        O      0.375000000000     0.437500000000     0.315000000000     0          
O        O      0.437500000000     0.437500000000     0.250000000000     0          
T        Si     0.426025000000     0.437500000000     0.307200000000     0          
T        Si     0.327225000000     0.360275000000     0.125000000000     0          
O        O      0.332750000000     0.491950000000     0.582500000000     0          
O        O      0.375000000000     0.490450000000     0.896600000000     0          
O        O      0.375000000000     0.312500000000     0.565000000000     0          
O        O      0.375000000000     0.375000000000     0.500000000000     0          
T        Si     0.375000000000     0.363525000000     0.557200000000     0          
T        Si     0.452225000000     0.264725000000     0.375000000000     0          
O        O      0.320550000000     0.270250000000     0.832500000000     0          
O        O      0.322050000000     0.312500000000     0.146600000000     0          
O        O      0.250000000000     0.312500000000     0.815000000000     0          
O        O      0.437500000000     0.312500000000     0.750000000000     0          
T        Si     0.448975000000     0.312500000000     0.807200000000     0          
T        Si     0.297775000000     0.389725000000     0.625000000000     0          
O        O      0.292250000000     0.491950000000     0.917500000000     0          
O        O      0.250000000000     0.490450000000     0.603400000000     0          
O        O      0.250000000000     0.312500000000     0.935000000000     0          
T        Si     0.250000000000     0.363525000000     0.942800000000     0          
T        Si     0.422775000000     0.264725000000     0.125000000000     0          
O        O      0.320550000000     0.479750000000     0.167500000000     0          
O        O      0.322050000000     0.437500000000     0.853400000000     0          
O        O      0.250000000000     0.437500000000     0.185000000000     0          
T        Si     0.448975000000     0.437500000000     0.192800000000     0          
T        Si     0.297775000000     0.360275000000     0.375000000000     0          
O        O      0.332750000000     0.258050000000     0.417500000000     0          
O        O      0.375000000000     0.259550000000     0.103400000000     0          
O        O      0.375000000000     0.437500000000     0.435000000000     0          
T        Si     0.375000000000     0.386475000000     0.442800000000     0          
T        Si     0.452225000000     0.485275000000     0.625000000000     0          
O        O      0.304450000000     0.270250000000     0.667500000000     0          
O        O      0.302950000000     0.312500000000     0.353400000000     0          
O        O      0.375000000000     0.312500000000     0.685000000000     0          
T        Si     0.426025000000     0.312500000000     0.692800000000     0          
T        Si     0.327225000000     0.389725000000     0.875000000000     0          
O        O      0.457750000000     0.491950000000     0.917500000000     0          
T        Si     0.327225000000     0.264725000000     0.125000000000     0          
O        O      0.445550000000     0.270250000000     0.667500000000     0          
O        O      0.447050000000     0.312500000000     0.353400000000     0          
O        O      0.312500000000     0.312500000000     0.750000000000     0          
T        Si     0.323975000000     0.312500000000     0.692800000000     0          
T        Si     0.422775000000     0.389725000000     0.875000000000     0          
O        O      0.417250000000     0.258050000000     0.417500000000     0          
T        Si     0.297775000000     0.485275000000     0.625000000000     0          
O        O      0.429450000000     0.479750000000     0.167500000000     0          
O        O      0.427950000000     0.437500000000     0.853400000000     0          
O        O      0.312500000000     0.437500000000     0.250000000000     0          
T        Si     0.301025000000     0.437500000000     0.192800000000     0          
T        Si     0.452225000000     0.360275000000     0.375000000000     0          
O        O      0.457750000000     0.258050000000     0.082500000000     0          
T        Si     0.327225000000     0.485275000000     0.875000000000     0          
O        O      0.429450000000     0.270250000000     0.832500000000     0          
O        O      0.427950000000     0.312500000000     0.146600000000     0          
T        Si     0.301025000000     0.312500000000     0.807200000000     0          
T        Si     0.452225000000     0.389725000000     0.625000000000     0          
O        O      0.417250000000     0.491950000000     0.582500000000     0          
T        Si     0.297775000000     0.264725000000     0.375000000000     0          
O        O      0.445550000000     0.479750000000     0.332500000000     0          
O        O      0.447050000000     0.437500000000     0.646600000000     0          
T        Si     0.323975000000     0.437500000000     0.307200000000     0          
T        Si     0.422775000000     0.360275000000     0.125000000000     0          
O        O      0.417250000000     0.383050000000     0.582500000000     0          
O        O      0.375000000000     0.384550000000     0.896600000000     0          
O        O      0.375000000000     0.250000000000     0.500000000000     0          
T        Si     0.375000000000     0.261475000000     0.557200000000     0          
O        O      0.429450000000     0.354750000000     0.832500000000     0          
O        O      0.457750000000     0.366950000000     0.082500000000     0          
O        O      0.250000000000     0.365450000000     0.396600000000     0          
O        O      0.250000000000     0.250000000000     0.000000000000     0          
T        Si     0.250000000000     0.488525000000     0.057200000000     0          
O        O      0.445550000000     0.395250000000     0.332500000000     0          
O        O      0.417250000000     0.366950000000     0.417500000000     0          
O        O      0.375000000000     0.365450000000     0.103400000000     0          
T        Si     0.375000000000     0.488525000000     0.442800000000     0          
O        O      0.445550000000     0.354750000000     0.667500000000     0          
O        O      0.457750000000     0.383050000000     0.917500000000     0          
O        O      0.250000000000     0.384550000000     0.603400000000     0          
T        Si     0.250000000000     0.261475000000     0.942800000000     0          
O        O      0.429450000000     0.395250000000     0.167500000000     0          
O        O      0.332750000000     0.366950000000     0.417500000000     0          
O        O      0.320550000000     0.395250000000     0.167500000000     0          
O        O      0.292250000000     0.383050000000     0.917500000000     0          
O        O      0.304450000000     0.354750000000     0.667500000000     0          
O        O      0.332750000000     0.383050000000     0.582500000000     0          
O        O      0.304450000000     0.395250000000     0.332500000000     0          
O        O      0.292250000000     0.366950000000     0.082500000000     0          
O        O      0.320550000000     0.354750000000     0.832500000000     0          
O        O      0.292250000000     0.508050000000     0.082500000000     0          
O        O      0.250000000000     0.509550000000     0.396600000000     0          
O        O      0.250000000000     0.687500000000     0.065000000000     0          
O        O      0.250000000000     0.625000000000     0.000000000000     0          
T        Si     0.250000000000     0.636475000000     0.057200000000     0          
T        Si     0.422775000000     0.735275000000     0.875000000000     0          
O        O      0.304450000000     0.729750000000     0.332500000000     0          
O        O      0.302950000000     0.687500000000     0.646600000000     0          
O        O      0.375000000000     0.687500000000     0.315000000000     0          
O        O      0.437500000000     0.687500000000     0.250000000000     0          
T        Si     0.426025000000     0.687500000000     0.307200000000     0          
T        Si     0.327225000000     0.610275000000     0.125000000000     0          
O        O      0.332750000000     0.741950000000     0.582500000000     0          
O        O      0.375000000000     0.740450000000     0.896600000000     0          
O        O      0.375000000000     0.562500000000     0.565000000000     0          
O        O      0.375000000000     0.625000000000     0.500000000000     0          
T        Si     0.375000000000     0.613525000000     0.557200000000     0          
T        Si     0.452225000000     0.514725000000     0.375000000000     0          
O        O      0.320550000000     0.520250000000     0.832500000000     0          
O        O      0.322050000000     0.562500000000     0.146600000000     0          
O        O      0.250000000000     0.562500000000     0.815000000000     0          
O        O      0.437500000000     0.562500000000     0.750000000000     0          
T        Si     0.448975000000     0.562500000000     0.807200000000     0          
T        Si     0.297775000000     0.639725000000     0.625000000000     0          
O        O      0.292250000000     0.741950000000     0.917500000000     0          
O        O      0.250000000000     0.740450000000     0.603400000000     0          
O        O      0.250000000000     0.562500000000     0.935000000000     0          
T        Si     0.250000000000     0.613525000000     0.942800000000     0          
T        Si     0.422775000000     0.514725000000     0.125000000000     0          
O        O      0.320550000000     0.729750000000     0.167500000000     0          
O        O      0.322050000000     0.687500000000     0.853400000000     0          
O        O      0.250000000000     0.687500000000     0.185000000000     0          
T        Si     0.448975000000     0.687500000000     0.192800000000     0          
T        Si     0.297775000000     0.610275000000     0.375000000000     0          
O        O      0.332750000000     0.508050000000     0.417500000000     0          
O        O      0.375000000000     0.509550000000     0.103400000000     0          
O        O      0.375000000000     0.687500000000     0.435000000000     0          
T        Si     0.375000000000     0.636475000000     0.442800000000     0          
T        Si     0.452225000000     0.735275000000     0.625000000000     0          
O        O      0.304450000000     0.520250000000     0.667500000000     0          
O        O      0.302950000000     0.562500000000     0.353400000000     0          
O        O      0.375000000000     0.562500000000     0.685000000000     0          
T        Si     0.426025000000     0.562500000000     0.692800000000     0          
T        Si     0.327225000000     0.639725000000     0.875000000000     0          
O        O      0.457750000000     0.741950000000     0.917500000000     0          
T        Si     0.327225000000     0.514725000000     0.125000000000     0          
O        O      0.445550000000     0.520250000000     0.667500000000     0          
O        O      0.447050000000     0.562500000000     0.353400000000     0          
O        O      0.312500000000     0.562500000000     0.750000000000     0          
T        Si     0.323975000000     0.562500000000     0.692800000000     0          
T        Si     0.422775000000     0.639725000000     0.875000000000     0          
O        O      0.417250000000     0.508050000000     0.417500000000     0          
T        Si     0.297775000000     0.735275000000     0.625000000000     0          
O        O      0.429450000000     0.729750000000     0.167500000000     0          
O        O      0.427950000000     0.687500000000     0.853400000000     0          
O        O      0.312500000000     0.687500000000     0.250000000000     0          
T        Si     0.301025000000     0.687500000000     0.192800000000     0          
T        Si     0.452225000000     0.610275000000     0.375000000000     0          
O        O      0.457750000000     0.508050000000     0.082500000000     0          
T        Si     0.327225000000     0.735275000000     0.875000000000     0          
O        O      0.429450000000     0.520250000000     0.832500000000     0          
O        O      0.427950000000     0.562500000000     0.146600000000     0          
T        Si     0.301025000000     0.562500000000     0.807200000000     0          
T        Si     0.452225000000     0.639725000000     0.625000000000     0          
O        O      0.417250000000     0.741950000000     0.582500000000     0          
T        Si     0.297775000000     0.514725000000     0.375000000000     0          
O        O      0.445550000000     0.729750000000     0.332500000000     0          
O        O      0.447050000000     0.687500000000     0.646600000000     0          
T        Si     0.323975000000     0.687500000000     0.307200000000     0          
T        Si     0.422775000000     0.610275000000     0.125000000000     0          
O        O      0.417250000000     0.633050000000     0.582500000000     0          
O        O      0.375000000000     0.634550000000     0.896600000000     0          
O        O      0.375000000000     0.500000000000     0.500000000000     0          
T        Si     0.375000000000     0.511475000000     0.557200000000     0          
O        O      0.429450000000     0.604750000000     0.832500000000     0          
O        O      0.457750000000     0.616950000000     0.082500000000     0          
O        O      0.250000000000     0.615450000000     0.396600000000     0          
O        O      0.250000000000     0.500000000000     0.000000000000     0          
T        Si     0.250000000000     0.738525000000     0.057200000000     0          
O        O      0.445550000000     0.645250000000     0.332500000000     0          
O        O      0.417250000000     0.616950000000     0.417500000000     0          
O        O      0.375000000000     0.615450000000     0.103400000000     0          
T        Si     0.375000000000     0.738525000000     0.442800000000     0          
O        O      0.445550000000     0.604750000000     0.667500000000     0          
O        O      0.457750000000     0.633050000000     0.917500000000     0          
O        O      0.250000000000     0.634550000000     0.603400000000     0          
T        Si     0.250000000000     0.511475000000     0.942800000000     0          
O        O      0.429450000000     0.645250000000     0.167500000000     0          
O        O      0.332750000000     0.616950000000     0.417500000000     0          
O        O      0.320550000000     0.645250000000     0.167500000000     0          
O        O      0.292250000000     0.633050000000     0.917500000000     0          
O        O      0.304450000000     0.604750000000     0.667500000000     0          
O        O      0.332750000000     0.633050000000     0.582500000000     0          
O        O      0.304450000000     0.645250000000     0.332500000000     0          
O        O      0.292250000000     0.616950000000     0.082500000000     0          
O        O      0.320550000000     0.604750000000     0.832500000000     0          
O        O      0.292250000000     0.758050000000     0.082500000000     0          
O        O      0.250000000000     0.759550000000     0.396600000000     0          
O        O      0.250000000000     0.937500000000     0.065000000000     0          
O        O      0.250000000000     0.875000000000     0.000000000000     0          
T        Si     0.250000000000     0.886475000000     0.057200000000     0          
T        Si     0.422775000000     0.985275000000     0.875000000000     0          
O        O      0.304450000000     0.979750000000     0.332500000000     0          
O        O      0.302950000000     0.937500000000     0.646600000000     0          
O        O      0.375000000000     0.937500000000     0.315000000000     0          
O        O      0.437500000000     0.937500000000     0.250000000000     0          
T        Si     0.426025000000     0.937500000000     0.307200000000     0          
T        Si     0.327225000000     0.860275000000     0.125000000000     0          
O        O      0.332750000000     0.991950000000     0.582500000000     0          
O        O      0.375000000000     0.990450000000     0.896600000000     0          
O        O      0.375000000000     0.812500000000     0.565000000000     0          
O        O      0.375000000000     0.875000000000     0.500000000000     0          
T        Si     0.375000000000     0.863525000000     0.557200000000     0          
T        Si     0.452225000000     0.764725000000     0.375000000000     0          
O        O      0.320550000000     0.770250000000     0.832500000000     0          
O        O      0.322050000000     0.812500000000     0.146600000000     0          
O        O      0.250000000000     0.812500000000     0.815000000000     0          
O        O      0.437500000000     0.812500000000     0.750000000000     0          
T        Si     0.448975000000     0.812500000000     0.807200000000     0          
T        Si     0.297775000000     0.889725000000     0.625000000000     0          
O        O      0.292250000000     0.991950000000     0.917500000000     0          
O        O      0.250000000000     0.990450000000     0.603400000000     0          
O        O      0.250000000000     0.812500000000     0.935000000000     0          
T        Si     0.250000000000     0.863525000000     0.942800000000     0          
T        Si     0.422775000000     0.764725000000     0.125000000000     0          
O        O      0.320550000000     0.979750000000     0.167500000000     0          
O        O      0.322050000000     0.937500000000     0.853400000000     0          
O        O      0.250000000000     0.937500000000     0.185000000000     0          
T        Si     0.448975000000     0.937500000000     0.192800000000     0          
T        Si     0.297775000000     0.860275000000     0.375000000000     0          
O        O      0.332750000000     0.758050000000     0.417500000000     0          
O        O      0.375000000000     0.759550000000     0.103400000000     0          
O        O      0.375000000000     0.937500000000     0.435000000000     0          
T        Si     0.375000000000     0.886475000000     0.442800000000     0          
T        Si     0.452225000000     0.985275000000     0.625000000000     0          
O        O      0.304450000000     0.770250000000     0.667500000000     0          
O        O      0.302950000000     0.812500000000     0.353400000000     0          
O        O      0.375000000000     0.812500000000     0.685000000000     0          
T        Si     0.426025000000     0.812500000000     0.692800000000     0          
T        Si     0.327225000000     0.889725000000     0.875000000000     0          
O        O      0.457750000000     0.991950000000     0.917500000000     0          
T        Si     0.327225000000     0.764725000000     0.125000000000     0          
O        O      0.445550000000     0.770250000000     0.667500000000     0          
O        O      0.447050000000     0.812500000000     0.353400000000     0          
O        O      0.312500000000     0.812500000000     0.750000000000     0          
T        Si     0.323975000000     0.812500000000     0.692800000000     0          
T        Si     0.422775000000     0.889725000000     0.875000000000     0          
O        O      0.417250000000     0.758050000000     0.417500000000     0          
T        Si     0.297775000000     0.985275000000     0.625000000000     0          
O        O      0.429450000000     0.979750000000     0.167500000000     0          
O        O      0.427950000000     0.937500000000     0.853400000000     0          
O        O      0.312500000000     0.937500000000     0.250000000000     0          
T        Si     0.301025000000     0.937500000000     0.192800000000     0          
T        Si     0.452225000000     0.860275000000     0.375000000000     0          
O        O      0.457750000000     0.758050000000     0.082500000000     0          
T        Si     0.327225000000     0.985275000000     0.875000000000     0          
O        O      0.429450000000     0.770250000000     0.832500000000     0          
O        O      0.427950000000     0.812500000000     0.146600000000     0          
T        Si     0.301025000000     0.812500000000     0.807200000000     0          
T        Si     0.452225000000     0.889725000000     0.625000000000     0          
O        O      0.417250000000     0.991950000000     0.582500000000     0          
T        Si     0.297775000000     0.764725000000     0.375000000000     0          
O        O      0.445550000000     0.979750000000     0.332500000000     0          
O        O      0.447050000000     0.937500000000     0.646600000000     0          
T        Si     0.323975000000     0.937500000000     0.307200000000     0          
T        Si     0.422775000000     0.860275000000     0.125000000000     0          
O        O      0.417250000000     0.883050000000     0.582500000000     0          
O        O      0.375000000000     0.884550000000     0.896600000000     0          
O        O      0.375000000000     0.750000000000     0.500000000000     0          
T        Si     0.375000000000     0.761475000000     0.557200000000     0          
O        O      0.429450000000     0.854750000000     0.832500000000     0          
O        O      0.457750000000     0.866950000000     0.082500000000     0          
O        O      0.250000000000     0.865450000000     0.396600000000     0          
O        O      0.250000000000     0.750000000000     0.000000000000     0          
T        Si     0.250000000000     0.988525000000     0.057200000000     0          
O        O      0.445550000000     0.895250000000     0.332500000000     0          
O        O      0.417250000000     0.866950000000     0.417500000000     0          
O        O      0.375000000000     0.865450000000     0.103400000000     0          
T        Si     0.375000000000     0.988525000000     0.442800000000     0          
O        O      0.445550000000     0.854750000000     0.667500000000     0          
O        O      0.457750000000     0.883050000000     0.917500000000     0          
O        O      0.250000000000     0.884550000000     0.603400000000     0          
T        Si     0.250000000000     0.761475000000     0.942800000000     0          
O        O      0.429450000000     0.895250000000     0.167500000000     0          
O        O      0.332750000000     0.866950000000     0.417500000000     0          
O        O      0.320550000000     0.895250000000     0.167500000000     0          
O        O      0.292250000000     0.883050000000     0.917500000000     0          
O        O      0.304450000000     0.854750000000     0.667500000000     0          
O        O      0.332750000000     0.883050000000     0.582500000000     0          
O        O      0.304450000000     0.895250000000     0.332500000000     0          
O        O      0.292250000000     0.866950000000     0.082500000000     0          
O        O      0.320550000000     0.854750000000     0.832500000000     0          
O        O      0.542250000000     0.008050000000     0.082500000000     0          
O        O      0.500000000000     0.009550000000     0.396600000000     0          
O        O      0.500000000000     0.187500000000     0.065000000000     0          
O        O      0.500000000000     0.125000000000     0.000000000000     0          
T        Si     0.500000000000     0.136475000000     0.057200000000     0          
T        Si     0.672775000000     0.235275000000     0.875000000000     0          
O        O      0.554450000000     0.229750000000     0.332500000000     0          
O        O      0.552950000000     0.187500000000     0.646600000000     0          
O        O      0.625000000000     0.187500000000     0.315000000000     0          
O        O      0.687500000000     0.187500000000     0.250000000000     0          
T        Si     0.676025000000     0.187500000000     0.307200000000     0          
T        Si     0.577225000000     0.110275000000     0.125000000000     0          
O        O      0.582750000000     0.241950000000     0.582500000000     0          
O        O      0.625000000000     0.240450000000     0.896600000000     0          
O        O      0.625000000000     0.062500000000     0.565000000000     0          
O        O      0.625000000000     0.125000000000     0.500000000000     0          
T        Si     0.625000000000     0.113525000000     0.557200000000     0          
T        Si     0.702225000000     0.014725000000     0.375000000000     0          
O        O      0.570550000000     0.020250000000     0.832500000000     0          
O        O      0.572050000000     0.062500000000     0.146600000000     0          
O        O      0.500000000000     0.062500000000     0.815000000000     0          
O        O      0.687500000000     0.062500000000     0.750000000000     0          
T        Si     0.698975000000     0.062500000000     0.807200000000     0          
T        Si     0.547775000000     0.139725000000     0.625000000000     0          
O        O      0.542250000000     0.241950000000     0.917500000000     0          
O        O      0.500000000000     0.240450000000     0.603400000000     0          
O        O      0.500000000000     0.062500000000     0.935000000000     0          
T        Si     0.500000000000     0.113525000000     0.942800000000     0          
T        Si     0.672775000000     0.014725000000     0.125000000000     0          
O        O      0.570550000000     0.229750000000     0.167500000000     0          
O        O      0.572050000000     0.187500000000     0.853400000000     0          
O        O      0.500000000000     0.187500000000     0.185000000000     0          
T        Si     0.698975000000     0.187500000000     0.192800000000     0          
T        Si     0.547775000000     0.110275000000     0.375000000000     0          
O        O      0.582750000000     0.008050000000     0.417500000000     0          
O        O      0.625000000000     0.009550000000     0.103400000000     0          
O        O      0.625000000000     0.187500000000     0.435000000000     0          
T        Si     0.625000000000     0.136475000000     0.442800000000     0          
T        Si     0.702225000000     0.235275000000     0.625000000000     0          
O        O      0.554450000000     0.020250000000     0.667500000000     0          
O        O      0.552950000000     0.062500000000     0.353400000000     0          
O        O      0.625000000000     0.062500000000     0.685000000000     0          
T        Si     0.676025000000     0.062500000000     0.692800000000     0          
T        Si     0.577225000000     0.139725000000     0.875000000000     0          
O        O      0.707750000000     0.241950000000     0.917500000000     0          
T        Si     0.577225000000     0.014725000000     0.125000000000     0          
O        O      0.695550000000     0.020250000000     0.667500000000     0          
O        O      0.697050000000     0.062500000000     0.353400000000     0          
O        O      0.562500000000     0.062500000000     0.750000000000     0          
T        Si     0.573975000000     0.062500000000     0.692800000000     0          
T        Si     0.672775000000     0.139725000000     0.875000000000     0          
O        O      0.667250000000     0.008050000000     0.417500000000     0          
T        Si     0.547775000000     0.235275000000     0.625000000000     0          
O        O      0.679450000000     0.229750000000     0.167500000000     0          
O        O      0.677950000000     0.187500000000     0.853400000000     0          
O        O      0.562500000000     0.187500000000     0.250000000000     0          
T        Si     0.551025000000     0.187500000000     0.192800000000     0          
T        Si     0.702225000000     0.110275000000     0.375000000000     0          
O        O      0.707750000000     0.008050000000     0.082500000000     0          
T        Si     0.577225000000     0.235275000000     0.875000000000     0          
O        O      0.679450000000     0.020250000000     0.832500000000     0          
O        O      0.677950000000     0.062500000000     0.146600000000     0          
T        Si     0.551025000000     0.062500000000     0.807200000000     0          
T        Si     0.702225000000     0.139725000000     0.625000000000     0          
O        O      0.667250000000     0.241950000000     0.582500000000     0          
T        Si     0.547775000000     0.014725000000     0.375000000000     0          
O        O      0.695550000000     0.229750000000     0.332500000000     0          
O        O      0.697050000000     0.187500000000     0.646600000000     0          
T        Si     0.573975000000     0.187500000000     0.307200000000     0          
T        Si     0.672775000000     0.110275000000     0.125000000000     0          
O        O      0.667250000000     0.133050000000     0.582500000000     0          
O        O      0.625000000000     0.134550000000     0.896600000000     0          
O        O      0.625000000000     0.000000000000     0.500000000000     0          
T        Si     0.625000000000     0.011475000000     0.557200000000     0          
O        O      0.679450000000     0.104750000000     0.832500000000     0          
O        O      0.707750000000     0.116950000000     0.082500000000     0          
O        O      0.500000000000     0.115450000000     0.396600000000     0          
O        O      0.500000000000     0.000000000000     0.000000000000     0          
T        Si     0.500000000000     0.238525000000     0.057200000000     0          
O        O      0.695550000000     0.145250000000     0.332500000000     0          
O        O      0.667250000000     0.116950000000     0.417500000000     0          
O        O      0.625000000000     0.115450000000     0.103400000000     0          
T        Si     0.625000000000     0.238525000000     0.442800000000     0          
O        O      0.695550000000     0.104750000000     0.667500000000     0          
O        O      0.707750000000     0.133050000000     0.917500000000     0          
O        O      0.500000000000     0.134550000000     0.603400000000     0          
T        Si     0.500000000000     0.011475000000     0.942800000000     0          
O        O      0.679450000000     0.145250000000     0.167500000000     0          
O        O      0.582750000000     0.116950000000     0.417500000000     0          
O        O      0.570550000000     0.145250000000     0.167500000000     0          
O        O      0.542250000000     0.133050000000     0.917500000000     0          
O        O      0.554450000000     0.104750000000     0.667500000000     0          
O        O      0.582750000000     0.133050000000     0.582500000000     0          
O        O      0.554450000000     0.145250000000     0.332500000000     0          
O        O      0.542250000000     0.116950000000     0.082500000000     0          
O        O      0.570550000000     0.104750000000     0.832500000000     0          
O        O      0.542250000000     0.258050000000     0.082500000000     0          
O        O      0.500000000000     0.259550000000     0.396600000000     0          
O        O      0.500000000000     0.437500000000     0.065000000000     0          
O        O      0.500000000000     0.375000000000     0.000000000000     0          
T        Si     0.500000000000     0.386475000000     0.057200000000     0          
T        Si     0.672775000000     0.485275000000     0.875000000000     0          
O        O      0.554450000000     0.479750000000     0.332500000000     0          
O        O      0.552950000000     0.437500000000     0.646600000000     0          
O        O      0.625000000000     0.437500000000     0.315000000000     0          
O        O      0.687500000000     0.437500000000     0.250000000000     0          
T        Si     0.676025000000     0.437500000000     0.307200000000     0          
T        Si     0.577225000000     0.360275000000     0.125000000000     0          
O        O      0.582750000000     0.491950000000     0.582500000000     0          
O        O      0.625000000000     0.490450000000     0.896600000000     0          
O        O      0.625000000000     0.312500000000     0.565000000000     0          
O        O      0.625000000000     0.375000000000     0.500000000000     0          
T        Si     0.625000000000     0.363525000000     0.557200000000     0          
T        Si     0.702225000000     0.264725000000     0.375000000000     0          
O        O      0.570550000000     0.270250000000     0.832500000000     0          
O        O      0.572050000000     0.312500000000     0.146600000000     0          
O        O      0.500000000000     0.312500000000     0.815000000000     0          
O        O      0.687500000000     0.312500000000     0.750000000000     0          
T        Si     0.698975000000     0.312500000000     0.807200000000     0          
T        Si     0.547775000000     0.389725000000     0.625000000000     0          
O        O      0.542250000000     0.491950000000     0.917500000000     0          
O        O      0.500000000000     0.490450000000     0.603400000000     0          
O        O      0.500000000000     0.312500000000     0.935000000000     0          
T        Si     0.500000000000     0.363525000000     0.942800000000     0          
T        Si     0.672775000000     0.264725000000     0.125000000000     0          
O        O      0.570550000000     0.479750000000     0.167500000000     0          
O        O      0.572050000000     0.437500000000     0.853400000000     0          
O        O      0.500000000000     0.437500000000     0.185000000000     0          
T        Si     0.698975000000     0.437500000000     0.192800000000     0          
T        Si     0.547775000000     0.360275000000     0.375000000000     0          
O        O      0.582750000000     0.258050000000     0.417500000000     0          
O        O      0.625000000000     0.259550000000     0.103400000000     0          
O        O      0.625000000000     0.437500000000     0.435000000000     0          
T        Si     0.625000000000     0.386475000000     0.442800000000     0          
T        Si     0.702225000000     0.485275000000     0.625000000000     0          
O        O      0.554450000000     0.270250000000     0.667500000000     0          
O        O      0.552950000000     0.312500000000     0.353400000000     0          
O        O      0.625000000000     0.312500000000     0.685000000000     0          
T        Si     0.676025000000     0.312500000000     0.692800000000     0          
T        Si     0.577225000000     0.389725000000     0.875000000000     0          
O        O      0.707750000000     0.491950000000     0.917500000000     0          
T        Si     0.577225000000     0.264725000000     0.125000000000     0          
O        O      0.695550000000     0.270250000000     0.667500000000     0          
O        O      0.697050000000     0.312500000000     0.353400000000     0          
O        O      0.562500000000     0.312500000000     0.750000000000     0          
T        Si     0.573975000000     0.312500000000     0.692800000000     0          
T        Si     0.672775000000     0.389725000000     0.875000000000     0          
O        O      0.667250000000     0.258050000000     0.417500000000     0          
T        Si     0.547775000000     0.485275000000     0.625000000000     0          
O        O      0.679450000000     0.479750000000     0.167500000000     0          
O        O      0.677950000000     0.437500000000     0.853400000000     0          
O        O      0.562500000000     0.437500000000     0.250000000000     0          
T        Si     0.551025000000     0.437500000000     0.192800000000     0          
T        Si     0.702225000000     0.360275000000     0.375000000000     0          
O        O      0.707750000000     0.258050000000     0.082500000000     0          
T        Si     0.577225000000     0.485275000000     0.875000000000     0          
O        O      0.679450000000     0.270250000000     0.832500000000     0          
O        O      0.677950000000     0.312500000000     0.146600000000     0          
T        Si     0.551025000000     0.312500000000     0.807200000000     0          
T        Si     0.702225000000     0.389725000000     0.625000000000     0          
O        O      0.667250000000     0.491950000000     0.582500000000     0          
T        Si     0.547775000000     0.264725000000     0.375000000000     0          
O        O      0.695550000000     0.479750000000     0.332500000000     0          
O        O      0.697050000000     0.437500000000     0.646600000000     0          
T        Si     0.573975000000     0.437500000000     0.307200000000     0          
T        Si     0.672775000000     0.360275000000     0.125000000000     0          
O        O      0.667250000000     0.383050000000     0.582500000000     0          
O        O      0.625000000000     0.384550000000     0.896600000000     0          
O        O      0.625000000000     0.250000000000     0.500000000000     0          
T        Si     0.625000000000     0.261475000000     0.557200000000     0          
O        O      0.679450000000     0.354750000000     0.832500000000     0          
O        O      0.707750000000     0.366950000000     0.082500000000     0          
O        O      0.500000000000     0.365450000000     0.396600000000     0          
O        O      0.500000000000     0.250000000000     0.000000000000     0          
T        Si     0.500000000000     0.488525000000     0.057200000000     0          
O        O      0.695550000000     0.395250000000     0.332500000000     0          
O        O      0.667250000000     0.366950000000     0.417500000000     0          
O        O      0.625000000000     0.365450000000     0.103400000000     0          
T        Si     0.625000000000     0.488525000000     0.442800000000     0          
O        O      0.695550000000     0.354750000000     0.667500000000     0          
O        O      0.707750000000     0.383050000000     0.917500000000     0          
O        O      0.500000000000     0.384550000000     0.603400000000     0          
T        Si     0.500000000000     0.261475000000     0.942800000000     0          
O        O      0.679450000000     0.395250000000     0.167500000000     0          
O        O      0.582750000000     0.366950000000     0.417500000000     0          
O        O      0.570550000000     0.395250000000     0.167500000000     0          
O        O      0.542250000000     0.383050000000     0.917500000000     0          
O        O      0.554450000000     0.354750000000     0.667500000000     0          
O        O      0.582750000000     0.383050000000     0.582500000000     0          
O        O      0.554450000000     0.395250000000     0.332500000000     0          
O        O      0.542250000000     0.366950000000     0.082500000000     0          
O        O      0.570550000000     0.354750000000     0.832500000000     0          
O        O      0.542250000000     0.508050000000     0.082500000000     0          
O        O      0.500000000000     0.509550000000     0.396600000000     0          
O        O      0.500000000000     0.687500000000     0.065000000000     0          
O        O      0.500000000000     0.625000000000     0.000000000000     0          
T        Si     0.500000000000     0.636475000000     0.057200000000     0          
T        Si     0.672775000000     0.735275000000     0.875000000000     0          
O        O      0.554450000000     0.729750000000     0.332500000000     0          
O        O      0.552950000000     0.687500000000     0.646600000000     0          
O        O      0.625000000000     0.687500000000     0.315000000000     0          
O        O      0.687500000000     0.687500000000     0.250000000000     0          
T        Si     0.676025000000     0.687500000000     0.307200000000     0          
T        Si     0.577225000000     0.610275000000     0.125000000000     0          
O        O      0.582750000000     0.741950000000     0.582500000000     0          
O        O      0.625000000000     0.740450000000     0.896600000000     0          
O        O      0.625000000000     0.562500000000     0.565000000000     0          
O        O      0.625000000000     0.625000000000     0.500000000000     0          
T        Si     0.625000000000     0.613525000000     0.557200000000     0          
T        Si     0.702225000000     0.514725000000     0.375000000000     0          
O        O      0.570550000000     0.520250000000     0.832500000000     0          
O        O      0.572050000000     0.562500000000     0.146600000000     0          
O        O      0.500000000000     0.562500000000     0.815000000000     0          
O        O      0.687500000000     0.562500000000     0.750000000000     0          
T        Si     0.698975000000     0.562500000000     0.807200000000     0          
T        Si     0.547775000000     0.639725000000     0.625000000000     0          
O        O      0.542250000000     0.741950000000     0.917500000000     0          
O        O      0.500000000000     0.740450000000     0.603400000000     0          
O        O      0.500000000000     0.562500000000     0.935000000000     0          
T        Si     0.500000000000     0.613525000000     0.942800000000     0          
T        Si     0.672775000000     0.514725000000     0.125000000000     0          
O        O      0.570550000000     0.729750000000     0.167500000000     0          
O        O      0.572050000000     0.687500000000     0.853400000000     0          
O        O      0.500000000000     0.687500000000     0.185000000000     0          
T        Si     0.698975000000     0.687500000000     0.192800000000     0          
T        Si     0.547775000000     0.610275000000     0.375000000000     0          
O        O      0.582750000000     0.508050000000     0.417500000000     0          
O        O      0.625000000000     0.509550000000     0.103400000000     0          
O        O      0.625000000000     0.687500000000     0.435000000000     0          
T        Si     0.625000000000     0.636475000000     0.442800000000     0          
T        Si     0.702225000000     0.735275000000     0.625000000000     0          
O        O      0.554450000000     0.520250000000     0.667500000000     0          
O        O      0.552950000000     0.562500000000     0.353400000000     0          
O        O      0.625000000000     0.562500000000     0.685000000000     0          
T        Si     0.676025000000     0.562500000000     0.692800000000     0          
T        Si     0.577225000000     0.639725000000     0.875000000000     0          
O        O      0.707750000000     0.741950000000     0.917500000000     0          
T        Si     0.577225000000     0.514725000000     0.125000000000     0          
O        O      0.695550000000     0.520250000000     0.667500000000     0          
O        O      0.697050000000     0.562500000000     0.353400000000     0          
O        O      0.562500000000     0.562500000000     0.750000000000     0          
T        Si     0.573975000000     0.562500000000     0.692800000000     0          
T        Si     0.672775000000     0.639725000000     0.875000000000     0          
O        O      0.667250000000     0.508050000000     0.417500000000     0          
T        Si     0.547775000000     0.735275000000     0.625000000000     0          
O        O      0.679450000000     0.729750000000     0.167500000000     0          
O        O      0.677950000000     0.687500000000     0.853400000000     0          
O        O      0.562500000000     0.687500000000     0.250000000000     0          
T        Si     0.551025000000     0.687500000000     0.192800000000     0          
T        Si     0.702225000000     0.610275000000     0.375000000000     0          
O        O      0.707750000000     0.508050000000     0.082500000000     0          
T        Si     0.577225000000     0.735275000000     0.875000000000     0          
O        O      0.679450000000     0.520250000000     0.832500000000     0          
O        O      0.677950000000     0.562500000000     0.146600000000     0          
T        Si     0.551025000000     0.562500000000     0.807200000000     0          
T        Si     0.702225000000     0.639725000000     0.625000000000     0          
O        O      0.667250000000     0.741950000000     0.582500000000     0          
T        Si     0.547775000000     0.514725000000     0.375000000000     0          
O        O      0.695550000000     0.729750000000     0.332500000000     0          
O        O      0.697050000000     0.687500000000     0.646600000000     0          
T        Si     0.573975000000     0.687500000000     0.307200000000     0          
T        Si     0.672775000000     0.610275000000     0.125000000000     0          
O        O      0.667250000000     0.633050000000     0.582500000000     0          
O        O      0.625000000000     0.634550000000     0.896600000000     0          
O        O      0.625000000000     0.500000000000     0.500000000000     0          
T        Si     0.625000000000     0.511475000000     0.557200000000     0          
O        O      0.679450000000     0.604750000000     0.832500000000     0          
O        O      0.707750000000     0.616950000000     0.082500000000     0          
O        O      0.500000000000     0.615450000000     0.396600000000     0          
O        O      0.500000000000     0.500000000000     0.000000000000     0          
T        Si     0.500000000000     0.738525000000     0.057200000000     0          
O        O      0.695550000000     0.645250000000     0.332500000000     0          
O        O      0.667250000000     0.616950000000     0.417500000000     0          
O        O      0.625000000000     0.615450000000     0.103400000000     0          
T        Si     0.625000000000     0.738525000000     0.442800000000     0          
O        O      0.695550000000     0.604750000000     0.667500000000     0          
O        O      0.707750000000     0.633050000000     0.917500000000     0          
O        O      0.500000000000     0.634550000000     0.603400000000     0          
T        Si     0.500000000000     0.511475000000     0.942800000000     0          
O        O      0.679450000000     0.645250000000     0.167500000000     0          
O        O      0.582750000000     0.616950000000     0.417500000000     0          
O        O      0.570550000000     0.645250000000     0.167500000000     0          
O        O      0.542250000000     0.633050000000     0.917500000000     0          
O        O      0.554450000000     0.604750000000     0.667500000000     0          
O        O      0.582750000000     0.633050000000     0.582500000000     0          
O        O      0.554450000000     0.645250000000     0.332500000000     0          
O        O      0.542250000000     0.616950000000     0.082500000000     0          
O        O      0.570550000000     0.604750000000     0.832500000000     0          
O        O      0.542250000000     0.758050000000     0.082500000000     0          
O        O      0.500000000000     0.759550000000     0.396600000000     0          
O        O      0.500000000000     0.937500000000     0.065000000000     0          
O        O      0.500000000000     0.875000000000     0.000000000000     0          
T        Si     0.500000000000     0.886475000000     0.057200000000     0          
T        Si     0.672775000000     0.985275000000     0.875000000000     0          
O        O      0.554450000000     0.979750000000     0.332500000000     0          
O        O      0.552950000000     0.937500000000     0.646600000000     0          
O        O      0.625000000000     0.937500000000     0.315000000000     0          
O        O      0.687500000000     0.937500000000     0.250000000000     0          
T        Si     0.676025000000     0.937500000000     0.307200000000     0          
T        Si     0.577225000000     0.860275000000     0.125000000000     0          
O        O      0.582750000000     0.991950000000     0.582500000000     0          
O        O      0.625000000000     0.990450000000     0.896600000000     0          
O        O      0.625000000000     0.812500000000     0.565000000000     0          
O        O      0.625000000000     0.875000000000     0.500000000000     0          
T        Si     0.625000000000     0.863525000000     0.557200000000     0          
T        Si     0.702225000000     0.764725000000     0.375000000000     0          
O        O      0.570550000000     0.770250000000     0.832500000000     0          
O        O      0.572050000000     0.812500000000     0.146600000000     0          
O        O      0.500000000000     0.812500000000     0.815000000000     0          
O        O      0.687500000000     0.812500000000     0.750000000000     0          
T        Si     0.698975000000     0.812500000000     0.807200000000     0          
T        Si     0.547775000000     0.889725000000     0.625000000000     0          
O        O      0.542250000000     0.991950000000     0.917500000000     0          
O        O      0.500000000000     0.990450000000     0.603400000000     0          
O        O      0.500000000000     0.812500000000     0.935000000000     0          
T        Si     0.500000000000     0.863525000000     0.942800000000     0          
T        Si     0.672775000000     0.764725000000     0.125000000000     0          
O        O      0.570550000000     0.979750000000     0.167500000000     0          
O        O      0.572050000000     0.937500000000     0.853400000000     0          
O        O      0.500000000000     0.937500000000     0.185000000000     0          
T        Si     0.698975000000     0.937500000000     0.192800000000     0          
T        Si     0.547775000000     0.860275000000     0.375000000000     0          
O        O      0.582750000000     0.758050000000     0.417500000000     0          
O        O      0.625000000000     0.759550000000     0.103400000000     0          
O        O      0.625000000000     0.937500000000     0.435000000000     0          
T        Si     0.625000000000     0.886475000000     0.442800000000     0          
T        Si     0.702225000000     0.985275000000     0.625000000000     0          
O        O      0.554450000000     0.770250000000     0.667500000000     0          
O        O      0.552950000000     0.812500000000     0.353400000000     0          
O        O      0.625000000000     0.812500000000     0.685000000000     0          
T        Si     0.676025000000     0.812500000000     0.692800000000     0          
T        Si     0.577225000000     0.889725000000     0.875000000000     0          
O        O      0.707750000000     0.991950000000     0.917500000000     0          
T        Si     0.577225000000     0.764725000000     0.125000000000     0          
O        O      0.695550000000     0.770250000000     0.667500000000     0          
O        O      0.697050000000     0.812500000000     0.353400000000     0          
O        O      0.562500000000     0.812500000000     0.750000000000     0          
T        Si     0.573975000000     0.812500000000     0.692800000000     0          
T        Si     0.672775000000     0.889725000000     0.875000000000     0          
O        O      0.667250000000     0.758050000000     0.417500000000     0          
T        Si     0.547775000000     0.985275000000     0.625000000000     0          
O        O      0.679450000000     0.979750000000     0.167500000000     0          
O        O      0.677950000000     0.937500000000     0.853400000000     0          
O        O      0.562500000000     0.937500000000     0.250000000000     0          
T        Si     0.551025000000     0.937500000000     0.192800000000     0          
T        Si     0.702225000000     0.860275000000     0.375000000000     0          
O        O      0.707750000000     0.758050000000     0.082500000000     0          
T        Si     0.577225000000     0.985275000000     0.875000000000     0          
O        O      0.679450000000     0.770250000000     0.832500000000     0          
O        O      0.677950000000     0.812500000000     0.146600000000     0          
T        Si     0.551025000000     0.812500000000     0.807200000000     0          
T        Si     0.702225000000     0.889725000000     0.625000000000     0          
O        O      0.667250000000     0.991950000000     0.582500000000     0          
T        Si     0.547775000000     0.764725000000     0.375000000000     0          
O        O      0.695550000000     0.979750000000     0.332500000000     0          
O        O      0.697050000000     0.937500000000     0.646600000000     0          
T        Si     0.573975000000     0.937500000000     0.307200000000     0          
T        Si     0.672775000000     0.860275000000     0.125000000000     0          
O        O      0.667250000000     0.883050000000     0.582500000000     0          
O        O      0.625000000000     0.884550000000     0.896600000000     0          
O        O      0.625000000000     0.750000000000     0.500000000000     0          
T        Si     0.625000000000     0.761475000000     0.557200000000     0          
O        O      0.679450000000     0.854750000000     0.832500000000     0          
O        O      0.707750000000     0.866950000000     0.082500000000     0          
O        O      0.500000000000     0.865450000000     0.396600000000     0          
O        O      0.500000000000     0.750000000000     0.000000000000     0          
T        Si     0.500000000000     0.988525000000     0.057200000000     0          
O        O      0.695550000000     0.895250000000     0.332500000000     0          
O        O      0.667250000000     0.866950000000     0.417500000000     0          
O        O      0.625000000000     0.865450000000     0.103400000000     0          
T        Si     0.625000000000     0.988525000000     0.442800000000     0          
O        O      0.695550000000     0.854750000000     0.667500000000     0          
O        O      0.707750000000     0.883050000000     0.917500000000     0          
O        O      0.500000000000     0.884550000000     0.603400000000     0          
T        Si     0.500000000000     0.761475000000     0.942800000000     0          
O        O      0.679450000000     0.895250000000     0.167500000000     0          
O        O      0.582750000000     0.866950000000     0.417500000000     0          
O        O      0.570550000000     0.895250000000     0.167500000000     0          
O        O      0.542250000000     0.883050000000     0.917500000000     0          
O        O      0.554450000000     0.854750000000     0.667500000000     0          
O        O      0.582750000000     0.883050000000     0.582500000000     0          
O        O      0.554450000000     0.895250000000     0.332500000000     0          
O        O      0.542250000000     0.866950000000     0.082500000000     0          
O        O      0.570550000000     0.854750000000     0.832500000000     0          
O        O      0.792250000000     0.008050000000     0.082500000000     0          
O        O      0.750000000000     0.009550000000     0.396600000000     0          
O        O      0.750000000000     0.187500000000     0.065000000000     0          
O        O      0.750000000000     0.125000000000     0.000000000000     0          
T        Si     0.750000000000     0.136475000000     0.057200000000     0          
T        Si     0.922775000000     0.235275000000     0.875000000000     0          
O        O      0.804450000000     0.229750000000     0.332500000000     0          
O        O      0.802950000000     0.187500000000     0.646600000000     0          
O        O      0.875000000000     0.187500000000     0.315000000000     0          
O        O      0.937500000000     0.187500000000     0.250000000000     0          
T        Si     0.926025000000     0.187500000000     0.307200000000     0          
T        Si     0.827225000000     0.110275000000     0.125000000000     0          
O        O      0.832750000000     0.241950000000     0.582500000000     0          
O        O      0.875000000000     0.240450000000     0.896600000000     0          
O        O      0.875000000000     0.062500000000     0.565000000000     0          
O        O      0.875000000000     0.125000000000     0.500000000000     0          
T        Si     0.875000000000     0.113525000000     0.557200000000     0          
T        Si     0.952225000000     0.014725000000     0.375000000000     0          
O        O      0.820550000000     0.020250000000     0.832500000000     0          
O        O      0.822050000000     0.062500000000     0.146600000000     0          
O        O      0.750000000000     0.062500000000     0.815000000000     0          
O        O      0.937500000000     0.062500000000     0.750000000000     0          
T        Si     0.948975000000     0.062500000000     0.807200000000     0          
T        Si     0.797775000000     0.139725000000     0.625000000000     0          
O        O      0.792250000000     0.241950000000     0.917500000000     0          
O        O      0.750000000000     0.240450000000     0.603400000000     0          
O        O      0.750000000000     0.062500000000     0.935000000000     0          
T        Si     0.750000000000     0.113525000000     0.942800000000     0          
T        Si     0.922775000000     0.014725000000     0.125000000000     0          
O        O      0.820550000000     0.229750000000     0.167500000000     0          
O        O      0.822050000000     0.187500000000     0.853400000000     0          
O        O      0.750000000000     0.187500000000     0.185000000000     0          
T        Si     0.948975000000     0.187500000000     0.192800000000     0          
T        Si     0.797775000000     0.110275000000     0.375000000000     0          
O        O      0.832750000000     0.008050000000     0.417500000000     0          
O        O      0.875000000000     0.009550000000     0.103400000000     0          
O        O      0.875000000000     0.187500000000     0.435000000000     0          
T        Si     0.875000000000     0.136475000000     0.442800000000     0          
T        Si     0.952225000000     0.235275000000     0.625000000000     0          
O        O      0.804450000000     0.020250000000     0.667500000000     0          
O        O      0.802950000000     0.062500000000     0.353400000000     0          
O        O      0.875000000000     0.062500000000     0.685000000000     0          
T        Si     0.926025000000     0.062500000000     0.692800000000     0          
T        Si     0.827225000000     0.139725000000     0.875000000000     0          
O        O      0.957750000000     0.241950000000     0.917500000000     0          
T        Si     0.827225000000     0.014725000000     0.125000000000     0          
O        O      0.945550000000     0.020250000000     0.667500000000     0          
O        O      0.947050000000     0.062500000000     0.353400000000     0          
O        O      0.812500000000     0.062500000000     0.750000000000     0          
T        Si     0.823975000000     0.062500000000     0.692800000000     0          
T        Si     0.922775000000     0.139725000000     0.875000000000     0          
O        O      0.917250000000     0.008050000000     0.417500000000     0          
T        Si     0.797775000000     0.235275000000     0.625000000000     0          
O        O      0.929450000000     0.229750000000     0.167500000000     0          
O        O      0.927950000000     0.187500000000     0.853400000000     0          
O        O      0.812500000000     0.187500000000     0.250000000000     0          
T        Si     0.801025000000     0.187500000000     0.192800000000     0          
T        Si     0.952225000000     0.110275000000     0.375000000000     0          
O        O      0.957750000000     0.008050000000     0.082500000000     0          
T        Si     0.827225000000     0.235275000000     0.875000000000     0          
O        O      0.929450000000     0.020250000000     0.832500000000     0          
O        O      0.927950000000     0.062500000000     0.146600000000     0          
T        Si     0.801025000000     0.062500000000     0.807200000000     0          
T        Si     0.952225000000     0.139725000000     0.625000000000     0          
O        O      0.917250000000     0.241950000000     0.582500000000     0          
T        Si     0.797775000000     0.014725000000     0.375000000000     0          
O        O      0.945550000000     0.229750000000     0.332500000000     0          
O        O      0.947050000000     0.187500000000     0.646600000000     0          
T        Si     0.823975000000     0.187500000000     0.307200000000     0          
T        Si     0.922775000000     0.110275000000     0.125000000000     0          
O        O      0.917250000000     0.133050000000     0.582500000000     0          
O        O      0.875000000000     0.134550000000     0.896600000000     0          
O        O      0.875000000000     0.000000000000     0.500000000000     0          
T        Si     0.875000000000     0.011475000000     0.557200000000     0          
O        O      0.929450000000     0.104750000000     0.832500000000     0          
O        O      0.957750000000     0.116950000000     0.082500000000     0          
O        O      0.750000000000     0.115450000000     0.396600000000     0          
O        O      0.750000000000     0.000000000000     0.000000000000     0          
T        Si     0.750000000000     0.238525000000     0.057200000000     0          
O        O      0.945550000000     0.145250000000     0.332500000000     0          
O        O      0.917250000000     0.116950000000     0.417500000000     0          
O        O      0.875000000000     0.115450000000     0.103400000000     0          
T        Si     0.875000000000     0.238525000000     0.442800000000     0          
O        O      0.945550000000     0.104750000000     0.667500000000     0          
O        O      0.957750000000     0.133050000000     0.917500000000     0          
O        O      0.750000000000     0.134550000000     0.603400000000     0          
T        Si     0.750000000000     0.011475000000     0.942800000000     0          
O        O      0.929450000000     0.145250000000     0.167500000000     0          
O        O      0.832750000000     0.116950000000     0.417500000000     0          
O        O      0.820550000000     0.145250000000     0.167500000000     0          
O        O      0.792250000000     0.133050000000     0.917500000000     0          
O        O      0.804450000000     0.104750000000     0.667500000000     0          
O        O      0.832750000000     0.133050000000     0.582500000000     0          
O        O      0.804450000000     0.145250000000     0.332500000000     0          
O        O      0.792250000000     0.116950000000     0.082500000000     0          
O        O      0.820550000000     0.104750000000     0.832500000000     0          
O        O      0.792250000000     0.258050000000     0.082500000000     0          
O        O      0.750000000000     0.259550000000     0.396600000000     0          
O        O      0.750000000000     0.437500000000     0.065000000000     0          
O        O      0.750000000000     0.375000000000     0.000000000000     0          
T        Si     0.750000000000     0.386475000000     0.057200000000     0          
T        Si     0.922775000000     0.485275000000     0.875000000000     0          
O        O      0.804450000000     0.479750000000     0.332500000000     0          
O        O      0.802950000000     0.437500000000     0.646600000000     0          
O        O      0.875000000000     0.437500000000     0.315000000000     0          
O        O      0.937500000000     0.437500000000     0.250000000000     0          
T        Si     0.926025000000     0.437500000000     0.307200000000     0          
T        Si     0.827225000000     0.360275000000     0.125000000000     0          
O        O      0.832750000000     0.491950000000     0.582500000000     0          
O        O      0.875000000000     0.490450000000     0.896600000000     0          
O        O      0.875000000000     0.312500000000     0.565000000000     0          
O        O      0.875000000000     0.375000000000     0.500000000000     0          
T        Si     0.875000000000     0.363525000000     0.557200000000     0          
T        Si     0.952225000000     0.264725000000     0.375000000000     0          
O        O      0.820550000000     0.270250000000     0.832500000000     0          
O        O      0.822050000000     0.312500000000     0.146600000000     0          
O        O      0.750000000000     0.312500000000     0.815000000000     0          
O        O      0.937500000000     0.312500000000     0.750000000000     0          
T        Si     0.948975000000     0.312500000000     0.807200000000     0          
T        Si     0.797775000000     0.389725000000     0.625000000000     0          
O        O      0.792250000000     0.491950000000     0.917500000000     0          
O        O      0.750000000000     0.490450000000     0.603400000000     0          
O        O      0.750000000000     0.312500000000     0.935000000000     0          
T        Si     0.750000000000     0.363525000000     0.942800000000     0          
T        Si     0.922775000000     0.264725000000     0.125000000000     0          
O        O      0.820550000000     0.479750000000     0.167500000000     0          
O        O      0.822050000000     0.437500000000     0.853400000000     0          
O        O      0.750000000000     0.437500000000     0.185000000000     0          
T        Si     0.948975000000     0.437500000000     0.192800000000     0          
T        Si     0.797775000000     0.360275000000     0.375000000000     0          
O        O      0.832750000000     0.258050000000     0.417500000000     0          
O        O      0.875000000000     0.259550000000     0.103400000000     0          
O        O      0.875000000000     0.437500000000     0.435000000000     0          
T        Si     0.875000000000     0.386475000000     0.442800000000     0          
T        Si     0.952225000000     0.485275000000     0.625000000000     0          
O        O      0.804450000000     0.270250000000     0.667500000000     0          
O        O      0.802950000000     0.312500000000     0.353400000000     0          
O        O      0.875000000000     0.312500000000     0.685000000000     0          
T        Si     0.926025000000     0.312500000000     0.692800000000     0          
T        Si     0.827225000000     0.389725000000     0.875000000000     0          
O        O      0.957750000000     0.491950000000     0.917500000000     0          
T        Si     0.827225000000     0.264725000000     0.125000000000     0          
O        O      0.945550000000     0.270250000000     0.667500000000     0          
O        O      0.947050000000     0.312500000000     0.353400000000     0          
O        O      0.812500000000     0.312500000000     0.750000000000     0          
T        Si     0.823975000000     0.312500000000     0.692800000000     0          
T        Si     0.922775000000     0.389725000000     0.875000000000     0          
O        O      0.917250000000     0.258050000000     0.417500000000     0          
T        Si     0.797775000000     0.485275000000     0.625000000000     0          
O        O      0.929450000000     0.479750000000     0.167500000000     0          
O        O      0.927950000000     0.437500000000     0.853400000000     0          
O        O      0.812500000000     0.437500000000     0.250000000000     0          
T        Si     0.801025000000     0.437500000000     0.192800000000     0          
T        Si     0.952225000000     0.360275000000     0.375000000000     0          
O        O      0.957750000000     0.258050000000     0.082500000000     0          
T        Si     0.827225000000     0.485275000000     0.875000000000     0          
O        O      0.929450000000     0.270250000000     0.832500000000     0          
O        O      0.927950000000     0.312500000000     0.146600000000     0          
T        Si     0.801025000000     0.312500000000     0.807200000000     0          
T        Si     0.952225000000     0.389725000000     0.625000000000     0          
O        O      0.917250000000     0.491950000000     0.582500000000     0          
T        Si     0.797775000000     0.264725000000     0.375000000000     0          
O        O      0.945550000000     0.479750000000     0.332500000000     0          
O        O      0.947050000000     0.437500000000     0.646600000000     0          
T        Si     0.823975000000     0.437500000000     0.307200000000     0          
T        Si     0.922775000000     0.360275000000     0.125000000000     0          
O        O      0.917250000000     0.383050000000     0.582500000000     0          
O        O      0.875000000000     0.384550000000     0.896600000000     0          
O        O      0.875000000000     0.250000000000     0.500000000000     0          
T        Si     0.875000000000     0.261475000000     0.557200000000     0          
O        O      0.929450000000     0.354750000000     0.832500000000     0          
O        O      0.957750000000     0.366950000000     0.082500000000     0          
O        O      0.750000000000     0.365450000000     0.396600000000     0          
O        O      0.750000000000     0.250000000000     0.000000000000     0          
T        Si     0.750000000000     0.488525000000     0.057200000000     0          
O        O      0.945550000000     0.395250000000     0.332500000000     0          
O        O      0.917250000000     0.366950000000     0.417500000000     0          
O        O      0.875000000000     0.365450000000     0.103400000000     0          
T        Si     0.875000000000     0.488525000000     0.442800000000     0          
O        O      0.945550000000     0.354750000000     0.667500000000     0          
O        O      0.957750000000     0.383050000000     0.917500000000     0          
O        O      0.750000000000     0.384550000000     0.603400000000     0          
T        Si     0.750000000000     0.261475000000     0.942800000000     0          
O        O      0.929450000000     0.395250000000     0.167500000000     0          
O        O      0.832750000000     0.366950000000     0.417500000000     0          
O        O      0.820550000000     0.395250000000     0.167500000000     0          
O        O      0.792250000000     0.383050000000     0.917500000000     0          
O        O      0.804450000000     0.354750000000     0.667500000000     0          
O        O      0.832750000000     0.383050000000     0.582500000000     0          
O        O      0.804450000000     0.395250000000     0.332500000000     0          
O        O      0.792250000000     0.366950000000     0.082500000000     0          
O        O      0.820550000000     0.354750000000     0.832500000000     0          
O        O      0.792250000000     0.508050000000     0.082500000000     0          
O        O      0.750000000000     0.509550000000     0.396600000000     0          
O        O      0.750000000000     0.687500000000     0.065000000000     0          
O        O      0.750000000000     0.625000000000     0.000000000000     0          
T        Si     0.750000000000     0.636475000000     0.057200000000     0          
T        Si     0.922775000000     0.735275000000     0.875000000000     0          
O        O      0.804450000000     0.729750000000     0.332500000000     0          
O        O      0.802950000000     0.687500000000     0.646600000000     0          
O        O      0.875000000000     0.687500000000     0.315000000000     0          
O        O      0.937500000000     0.687500000000     0.250000000000     0          
T        Si     0.926025000000     0.687500000000     0.307200000000     0          
T        Si     0.827225000000     0.610275000000     0.125000000000     0          
O        O      0.832750000000     0.741950000000     0.582500000000     0          
O        O      0.875000000000     0.740450000000     0.896600000000     0          
O        O      0.875000000000     0.562500000000     0.565000000000     0          
O        O      0.875000000000     0.625000000000     0.500000000000     0          
T        Si     0.875000000000     0.613525000000     0.557200000000     0          
T        Si     0.952225000000     0.514725000000     0.375000000000     0          
O        O      0.820550000000     0.520250000000     0.832500000000     0          
O        O      0.822050000000     0.562500000000     0.146600000000     0          
O        O      0.750000000000     0.562500000000     0.815000000000     0          
O        O      0.937500000000     0.562500000000     0.750000000000     0          
T        Si     0.948975000000     0.562500000000     0.807200000000     0          
T        Si     0.797775000000     0.639725000000     0.625000000000     0          
O        O      0.792250000000     0.741950000000     0.917500000000     0          
O        O      0.750000000000     0.740450000000     0.603400000000     0          
O        O      0.750000000000     0.562500000000     0.935000000000     0          
T        Si     0.750000000000     0.613525000000     0.942800000000     0          
T        Si     0.922775000000     0.514725000000     0.125000000000     0          
O        O      0.820550000000     0.729750000000     0.167500000000     0          
O        O      0.822050000000     0.687500000000     0.853400000000     0          
O        O      0.750000000000     0.687500000000     0.185000000000     0          
T        Si     0.948975000000     0.687500000000     0.192800000000     0          
T        Si     0.797775000000     0.610275000000     0.375000000000     0          
O        O      0.832750000000     0.508050000000     0.417500000000     0          
O        O      0.875000000000     0.509550000000     0.103400000000     0          
O        O      0.875000000000     0.687500000000     0.435000000000     0          
T        Si     0.875000000000     0.636475000000     0.442800000000     0          
T        Si     0.952225000000     0.735275000000     0.625000000000     0          
O        O      0.804450000000     0.520250000000     0.667500000000     0          
O        O      0.802950000000     0.562500000000     0.353400000000     0          
O        O      0.875000000000     0.562500000000     0.685000000000     0          
T        Si     0.926025000000     0.562500000000     0.692800000000     0          
T        Si     0.827225000000     0.639725000000     0.875000000000     0          
O        O      0.957750000000     0.741950000000     0.917500000000     0          
T        Si     0.827225000000     0.514725000000     0.125000000000     0          
O        O      0.945550000000     0.520250000000     0.667500000000     0          
O        O      0.947050000000     0.562500000000     0.353400000000     0          
O        O      0.812500000000     0.562500000000     0.750000000000     0          
T        Si     0.823975000000     0.562500000000     0.692800000000     0          
T        Si     0.922775000000     0.639725000000     0.875000000000     0          
O        O      0.917250000000     0.508050000000     0.417500000000     0          
T        Si     0.797775000000     0.735275000000     0.625000000000     0          
O        O      0.929450000000     0.729750000000     0.167500000000     0          
O        O      0.927950000000     0.687500000000     0.853400000000     0          
O        O      0.812500000000     0.687500000000     0.250000000000     0          
T        Si     0.801025000000     0.687500000000     0.192800000000     0          
T        Si     0.952225000000     0.610275000000     0.375000000000     0          
O        O      0.957750000000     0.508050000000     0.082500000000     0          
T        Si     0.827225000000     0.735275000000     0.875000000000     0          
O        O      0.929450000000     0.520250000000     0.832500000000     0          
O        O      0.927950000000     0.562500000000     0.146600000000     0          
T        Si     0.801025000000     0.562500000000     0.807200000000     0          
T        Si     0.952225000000     0.639725000000     0.625000000000     0          
O        O      0.917250000000     0.741950000000     0.582500000000     0          
T        Si     0.797775000000     0.514725000000     0.375000000000     0          
O        O      0.945550000000     0.729750000000     0.332500000000     0          
O        O      0.947050000000     0.687500000000     0.646600000000     0          
T        Si     0.823975000000     0.687500000000     0.307200000000     0          
T        Si     0.922775000000     0.610275000000     0.125000000000     0          
O        O      0.917250000000     0.633050000000     0.582500000000     0          
O        O      0.875000000000     0.634550000000     0.896600000000     0          
O        O      0.875000000000     0.500000000000     0.500000000000     0          
T        Si     0.875000000000     0.511475000000     0.557200000000     0          
O        O      0.929450000000     0.604750000000     0.832500000000     0          
O        O      0.957750000000     0.616950000000     0.082500000000     0          
O        O      0.750000000000     0.615450000000     0.396600000000     0          
O        O      0.750000000000     0.500000000000     0.000000000000     0          
T        Si     0.750000000000     0.738525000000     0.057200000000     0          
O        O      0.945550000000     0.645250000000     0.332500000000     0          
O        O      0.917250000000     0.616950000000     0.417500000000     0          
O        O      0.875000000000     0.615450000000     0.103400000000     0          
T        Si     0.875000000000     0.738525000000     0.442800000000     0          
O        O      0.945550000000     0.604750000000     0.667500000000     0          
O        O      0.957750000000     0.633050000000     0.917500000000     0          
O        O      0.750000000000     0.634550000000     0.603400000000     0          
T        Si     0.750000000000     0.511475000000     0.942800000000     0          
O        O      0.929450000000     0.645250000000     0.167500000000     0          
O        O      0.832750000000     0.616950000000     0.417500000000     0          
O        O      0.820550000000     0.645250000000     0.167500000000     0          
O        O      0.792250000000     0.633050000000     0.917500000000     0          
O        O      0.804450000000     0.604750000000     0.667500000000     0          
O        O      0.832750000000     0.633050000000     0.582500000000     0          
O        O      0.804450000000     0.645250000000     0.332500000000     0          
O        O      0.792250000000     0.616950000000     0.082500000000     0          
O        O      0.820550000000     0.604750000000     0.832500000000     0          
O        O      0.792250000000     0.758050000000     0.082500000000     0          
O        O      0.750000000000     0.759550000000     0.396600000000     0          
O        O      0.750000000000     0.937500000000     0.065000000000     0          
O        O      0.750000000000     0.875000000000     0.000000000000     0          
T        Si     0.750000000000     0.886475000000     0.057200000000     0          
T        Si     0.922775000000     0.985275000000     0.875000000000     0          
O        O      0.804450000000     0.979750000000     0.332500000000     0          
O        O      0.802950000000     0.937500000000     0.646600000000     0          
O        O      0.875000000000     0.937500000000     0.315000000000     0          
O        O      0.937500000000     0.937500000000     0.250000000000     0          
T        Si     0.926025000000     0.937500000000     0.307200000000     0          
T        Si     0.827225000000     0.860275000000     0.125000000000     0          
O        O      0.832750000000     0.991950000000     0.582500000000     0          
O        O      0.875000000000     0.990450000000     0.896600000000     0          
O        O      0.875000000000     0.812500000000     0.565000000000     0          
O        O      0.875000000000     0.875000000000     0.500000000000     0          
T        Si     0.875000000000     0.863525000000     0.557200000000     0          
T        Si     0.952225000000     0.764725000000     0.375000000000     0          
O        O      0.820550000000     0.770250000000     0.832500000000     0          
O        O      0.822050000000     0.812500000000     0.146600000000     0          
O        O      0.750000000000     0.812500000000     0.815000000000     0          
O        O      0.937500000000     0.812500000000     0.750000000000     0          
T        Si     0.948975000000     0.812500000000     0.807200000000     0          
T        Si     0.797775000000     0.889725000000     0.625000000000     0          
O        O      0.792250000000     0.991950000000     0.917500000000     0          
O        O      0.750000000000     0.990450000000     0.603400000000     0          
O        O      0.750000000000     0.812500000000     0.935000000000     0          
T        Si     0.750000000000     0.863525000000     0.942800000000     0          
T        Si     0.922775000000     0.764725000000     0.125000000000     0          
O        O      0.820550000000     0.979750000000     0.167500000000     0          
O        O      0.822050000000     0.937500000000     0.853400000000     0          
O        O      0.750000000000     0.937500000000     0.185000000000     0          
T        Si     0.948975000000     0.937500000000     0.192800000000     0          
T        Si     0.797775000000     0.860275000000     0.375000000000     0          
O        O      0.832750000000     0.758050000000     0.417500000000     0          
O        O      0.875000000000     0.759550000000     0.103400000000     0          
O        O      0.875000000000     0.937500000000     0.435000000000     0          
T        Si     0.875000000000     0.886475000000     0.442800000000     0          
T        Si     0.952225000000     0.985275000000     0.625000000000     0          
O        O      0.804450000000     0.770250000000     0.667500000000     0          
O        O      0.802950000000     0.812500000000     0.353400000000     0          
O        O      0.875000000000     0.812500000000     0.685000000000     0          
T        Si     0.926025000000     0.812500000000     0.692800000000     0          
T        Si     0.827225000000     0.889725000000     0.875000000000     0          
O        O      0.957750000000     0.991950000000     0.917500000000     0          
T        Si     0.827225000000     0.764725000000     0.125000000000     0          
O        O      0.945550000000     0.770250000000     0.667500000000     0          
O        O      0.947050000000     0.812500000000     0.353400000000     0          
O        O      0.812500000000     0.812500000000     0.750000000000     0          
T        Si     0.823975000000     0.812500000000     0.692800000000     0          
T        Si     0.922775000000     0.889725000000     0.875000000000     0          
O        O      0.917250000000     0.758050000000     0.417500000000     0          
T        Si     0.797775000000     0.985275000000     0.625000000000     0          
O        O      0.929450000000     0.979750000000     0.167500000000     0          
O        O      0.927950000000     0.937500000000     0.853400000000     0          
O        O      0.812500000000     0.937500000000     0.250000000000     0          
T        Si     0.801025000000     0.937500000000     0.192800000000     0          
T        Si     0.952225000000     0.860275000000     0.375000000000     0          
O        O      0.957750000000     0.758050000000     0.082500000000     0          
T        Si     0.827225000000     0.985275000000     0.875000000000     0          
O        O      0.929450000000     0.770250000000     0.832500000000     0          
O        O      0.927950000000     0.812500000000     0.146600000000     0          
T        Si     0.801025000000     0.812500000000     0.807200000000     0          
T        Si     0.952225000000     0.889725000000     0.625000000000     0          
O        O      0.917250000000     0.991950000000     0.582500000000     0          
T        Si     0.797775000000     0.764725000000     0.375000000000     0          
O        O      0.945550000000     0.979750000000     0.332500000000     0          
O        O      0.947050000000     0.937500000000     0.646600000000     0          
T        Si     0.823975000000     0.937500000000     0.307200000000     0          
T        Si     0.922775000000     0.860275000000     0.125000000000     0          
O        O      0.917250000000     0.883050000000     0.582500000000     0          
O        O      0.875000000000     0.884550000000     0.896600000000     0          
O        O      0.875000000000     0.750000000000     0.500000000000     0          
T        Si     0.875000000000     0.761475000000     0.557200000000     0          
O        O      0.929450000000     0.854750000000     0.832500000000     0          
O        O      0.957750000000     0.866950000000     0.082500000000     0          
O        O      0.750000000000     0.865450000000     0.396600000000     0          
O        O      0.750000000000     0.750000000000     0.000000000000     0          
T        Si     0.750000000000     0.988525000000     0.057200000000     0          
O        O      0.945550000000     0.895250000000     0.332500000000     0          
O        O      0.917250000000     0.866950000000     0.417500000000     0          
O        O      0.875000000000     0.865450000000     0.103400000000     0          
T        Si     0.875000000000     0.988525000000     0.442800000000     0          
O        O      0.945550000000     0.854750000000     0.667500000000     0          
O        O      0.957750000000     0.883050000000     0.917500000000     0          
O        O      0.750000000000     0.884550000000     0.603400000000     0          
T        Si     0.750000000000     0.761475000000     0.942800000000     0          
O        O      0.929450000000     0.895250000000     0.167500000000     0          
O        O      0.832750000000     0.866950000000     0.417500000000     0          
O        O      0.820550000000     0.895250000000     0.167500000000     0          
O        O      0.792250000000     0.883050000000     0.917500000000     0          
O        O      0.804450000000     0.854750000000     0.667500000000     0          
O        O      0.832750000000     0.883050000000     0.582500000000     0          
O        O      0.804450000000     0.895250000000     0.332500000000     0          
O        O      0.792250000000     0.866950000000     0.082500000000     0          
O        O      0.820550000000     0.854750000000     0.832500000000     0          


