data_zeolite

_audit_creation_method RASPA-1.0
_audit_creation_date 2021-6-7
_audit_author_name ''

_cell_length_a    9.1804
_cell_length_b    11.6735
_cell_length_c    10.8785
_cell_angle_alpha 90
_cell_angle_beta  91.67
_cell_angle_gamma 90
_cell_volume      31463.8

_symmetry_cell_setting          monoclinic
_symmetry_space_group_name_Hall 'P 1'
_symmetry_space_group_name_H-M  'P 1'
_symmetry_Int_Tables_number     1

_symmetry_equiv_pos_as_xyz 'x,y,z'

loop_
_atom_site_label
_atom_site_type_symbol
_atom_site_fract_x
_atom_site_fract_y
_atom_site_fract_z
_atom_site_charge
T        Si     0.051226666667     0.135960000000     0.073230000000     0          
T        Si     0.029176666667     0.278583333333     0.156626666667     0          
T        Si     0.047863333333     0.055720000000     0.107653333333     0          
T        Si     0.108943333333     0.160030000000     0.332830000000     0          
T        Si     0.013070000000     0.195373333333     0.130233333333     0          
T        Si     0.282106666667     0.302626666667     0.093436666667     0          
T        Si     0.304156666667     0.111916666667     0.010040000000     0          
T        Si     0.285470000000     0.222386666667     0.059013333333     0          
T        Si     0.224390000000     0.326696666667     0.167170000000     0          
T        Si     0.320263333333     0.028706666667     0.036433333333     0          
T        Si     0.282106666667     0.197373333333     0.260103333333     0          
T        Si     0.304156666667     0.054750000000     0.176706666667     0          
T        Si     0.285470000000     0.277613333333     0.225680000000     0          
T        Si     0.224390000000     0.173303333333     0.000503333333     0          
T        Si     0.320263333333     0.137960000000     0.203100000000     0          
T        Si     0.051226666667     0.030706666667     0.239896666667     0          
T        Si     0.029176666667     0.221416666667     0.323293333333     0          
T        Si     0.047863333333     0.110946666667     0.274320000000     0          
T        Si     0.108943333333     0.006636666667     0.166163333333     0          
T        Si     0.013070000000     0.304626666667     0.296900000000     0          
T        Si     0.051226666667     0.135960000000     0.406563333333     0          
T        Si     0.029176666667     0.278583333333     0.489960000000     0          
T        Si     0.047863333333     0.055720000000     0.440986666667     0          
T        Si     0.108943333333     0.160030000000     0.666163333333     0          
T        Si     0.013070000000     0.195373333333     0.463566666667     0          
T        Si     0.282106666667     0.302626666667     0.426770000000     0          
T        Si     0.304156666667     0.111916666667     0.343373333333     0          
T        Si     0.285470000000     0.222386666667     0.392346666667     0          
T        Si     0.224390000000     0.326696666667     0.500503333333     0          
T        Si     0.320263333333     0.028706666667     0.369766666667     0          
T        Si     0.282106666667     0.197373333333     0.593436666667     0          
T        Si     0.304156666667     0.054750000000     0.510040000000     0          
T        Si     0.285470000000     0.277613333333     0.559013333333     0          
T        Si     0.224390000000     0.173303333333     0.333836666667     0          
T        Si     0.320263333333     0.137960000000     0.536433333333     0          
T        Si     0.051226666667     0.030706666667     0.573230000000     0          
T        Si     0.029176666667     0.221416666667     0.656626666667     0          
T        Si     0.047863333333     0.110946666667     0.607653333333     0          
T        Si     0.108943333333     0.006636666667     0.499496666667     0          
T        Si     0.013070000000     0.304626666667     0.630233333333     0          
T        Si     0.051226666667     0.135960000000     0.739896666667     0          
T        Si     0.029176666667     0.278583333333     0.823293333333     0          
T        Si     0.047863333333     0.055720000000     0.774320000000     0          
T        Si     0.108943333333     0.160030000000     0.999496666667     0          
T        Si     0.013070000000     0.195373333333     0.796900000000     0          
T        Si     0.282106666667     0.302626666667     0.760103333333     0          
T        Si     0.304156666667     0.111916666667     0.676706666667     0          
T        Si     0.285470000000     0.222386666667     0.725680000000     0          
T        Si     0.224390000000     0.326696666667     0.833836666667     0          
T        Si     0.320263333333     0.028706666667     0.703100000000     0          
T        Si     0.282106666667     0.197373333333     0.926770000000     0          
T        Si     0.304156666667     0.054750000000     0.843373333333     0          
T        Si     0.285470000000     0.277613333333     0.892346666667     0          
T        Si     0.224390000000     0.173303333333     0.667170000000     0          
T        Si     0.320263333333     0.137960000000     0.869766666667     0          
T        Si     0.051226666667     0.030706666667     0.906563333333     0          
T        Si     0.029176666667     0.221416666667     0.989960000000     0          
T        Si     0.047863333333     0.110946666667     0.940986666667     0          
T        Si     0.108943333333     0.006636666667     0.832830000000     0          
T        Si     0.013070000000     0.304626666667     0.963566666667     0          
T        Si     0.051226666667     0.469293333333     0.073230000000     0          
T        Si     0.029176666667     0.611916666667     0.156626666667     0          
T        Si     0.047863333333     0.389053333333     0.107653333333     0          
T        Si     0.108943333333     0.493363333333     0.332830000000     0          
T        Si     0.013070000000     0.528706666667     0.130233333333     0          
T        Si     0.282106666667     0.635960000000     0.093436666667     0          
T        Si     0.304156666667     0.445250000000     0.010040000000     0          
T        Si     0.285470000000     0.555720000000     0.059013333333     0          
T        Si     0.224390000000     0.660030000000     0.167170000000     0          
T        Si     0.320263333333     0.362040000000     0.036433333333     0          
T        Si     0.282106666667     0.530706666667     0.260103333333     0          
T        Si     0.304156666667     0.388083333333     0.176706666667     0          
T        Si     0.285470000000     0.610946666667     0.225680000000     0          
T        Si     0.224390000000     0.506636666667     0.000503333333     0          
T        Si     0.320263333333     0.471293333333     0.203100000000     0          
T        Si     0.051226666667     0.364040000000     0.239896666667     0          
T        Si     0.029176666667     0.554750000000     0.323293333333     0          
T        Si     0.047863333333     0.444280000000     0.274320000000     0          
T        Si     0.108943333333     0.339970000000     0.166163333333     0          
T        Si     0.013070000000     0.637960000000     0.296900000000     0          
T        Si     0.051226666667     0.469293333333     0.406563333333     0          
T        Si     0.029176666667     0.611916666667     0.489960000000     0          
T        Si     0.047863333333     0.389053333333     0.440986666667     0          
T        Si     0.108943333333     0.493363333333     0.666163333333     0          
T        Si     0.013070000000     0.528706666667     0.463566666667     0          
T        Si     0.282106666667     0.635960000000     0.426770000000     0          
T        Si     0.304156666667     0.445250000000     0.343373333333     0          
T        Si     0.285470000000     0.555720000000     0.392346666667     0          
T        Si     0.224390000000     0.660030000000     0.500503333333     0          
T        Si     0.320263333333     0.362040000000     0.369766666667     0          
T        Si     0.282106666667     0.530706666667     0.593436666667     0          
T        Si     0.304156666667     0.388083333333     0.510040000000     0          
T        Si     0.285470000000     0.610946666667     0.559013333333     0          
T        Si     0.224390000000     0.506636666667     0.333836666667     0          
T        Si     0.320263333333     0.471293333333     0.536433333333     0          
T        Si     0.051226666667     0.364040000000     0.573230000000     0          
T        Si     0.029176666667     0.554750000000     0.656626666667     0          
T        Si     0.047863333333     0.444280000000     0.607653333333     0          
T        Si     0.108943333333     0.339970000000     0.499496666667     0          
T        Si     0.013070000000     0.637960000000     0.630233333333     0          
T        Si     0.051226666667     0.469293333333     0.739896666667     0          
T        Si     0.029176666667     0.611916666667     0.823293333333     0          
T        Si     0.047863333333     0.389053333333     0.774320000000     0          
T        Si     0.108943333333     0.493363333333     0.999496666667     0          
T        Si     0.013070000000     0.528706666667     0.796900000000     0          
T        Si     0.282106666667     0.635960000000     0.760103333333     0          
T        Si     0.304156666667     0.445250000000     0.676706666667     0          
T        Si     0.285470000000     0.555720000000     0.725680000000     0          
T        Si     0.224390000000     0.660030000000     0.833836666667     0          
T        Si     0.320263333333     0.362040000000     0.703100000000     0          
T        Si     0.282106666667     0.530706666667     0.926770000000     0          
T        Si     0.304156666667     0.388083333333     0.843373333333     0          
T        Si     0.285470000000     0.610946666667     0.892346666667     0          
T        Si     0.224390000000     0.506636666667     0.667170000000     0          
T        Si     0.320263333333     0.471293333333     0.869766666667     0          
T        Si     0.051226666667     0.364040000000     0.906563333333     0          
T        Si     0.029176666667     0.554750000000     0.989960000000     0          
T        Si     0.047863333333     0.444280000000     0.940986666667     0          
T        Si     0.108943333333     0.339970000000     0.832830000000     0          
T        Si     0.013070000000     0.637960000000     0.963566666667     0          
T        Si     0.051226666667     0.802626666667     0.073230000000     0          
T        Si     0.029176666667     0.945250000000     0.156626666667     0          
T        Si     0.047863333333     0.722386666667     0.107653333333     0          
T        Si     0.108943333333     0.826696666667     0.332830000000     0          
T        Si     0.013070000000     0.862040000000     0.130233333333     0          
T        Si     0.282106666667     0.969293333333     0.093436666667     0          
T        Si     0.304156666667     0.778583333333     0.010040000000     0          
T        Si     0.285470000000     0.889053333333     0.059013333333     0          
T        Si     0.224390000000     0.993363333333     0.167170000000     0          
T        Si     0.320263333333     0.695373333333     0.036433333333     0          
T        Si     0.282106666667     0.864040000000     0.260103333333     0          
T        Si     0.304156666667     0.721416666667     0.176706666667     0          
T        Si     0.285470000000     0.944280000000     0.225680000000     0          
T        Si     0.224390000000     0.839970000000     0.000503333333     0          
T        Si     0.320263333333     0.804626666667     0.203100000000     0          
T        Si     0.051226666667     0.697373333333     0.239896666667     0          
T        Si     0.029176666667     0.888083333333     0.323293333333     0          
T        Si     0.047863333333     0.777613333333     0.274320000000     0          
T        Si     0.108943333333     0.673303333333     0.166163333333     0          
T        Si     0.013070000000     0.971293333333     0.296900000000     0          
T        Si     0.051226666667     0.802626666667     0.406563333333     0          
T        Si     0.029176666667     0.945250000000     0.489960000000     0          
T        Si     0.047863333333     0.722386666667     0.440986666667     0          
T        Si     0.108943333333     0.826696666667     0.666163333333     0          
T        Si     0.013070000000     0.862040000000     0.463566666667     0          
T        Si     0.282106666667     0.969293333333     0.426770000000     0          
T        Si     0.304156666667     0.778583333333     0.343373333333     0          
T        Si     0.285470000000     0.889053333333     0.392346666667     0          
T        Si     0.224390000000     0.993363333333     0.500503333333     0          
T        Si     0.320263333333     0.695373333333     0.369766666667     0          
T        Si     0.282106666667     0.864040000000     0.593436666667     0          
T        Si     0.304156666667     0.721416666667     0.510040000000     0          
T        Si     0.285470000000     0.944280000000     0.559013333333     0          
T        Si     0.224390000000     0.839970000000     0.333836666667     0          
T        Si     0.320263333333     0.804626666667     0.536433333333     0          
T        Si     0.051226666667     0.697373333333     0.573230000000     0          
T        Si     0.029176666667     0.888083333333     0.656626666667     0          
T        Si     0.047863333333     0.777613333333     0.607653333333     0          
T        Si     0.108943333333     0.673303333333     0.499496666667     0          
T        Si     0.013070000000     0.971293333333     0.630233333333     0          
T        Si     0.051226666667     0.802626666667     0.739896666667     0          
T        Si     0.029176666667     0.945250000000     0.823293333333     0          
T        Si     0.047863333333     0.722386666667     0.774320000000     0          
T        Si     0.108943333333     0.826696666667     0.999496666667     0          
T        Si     0.013070000000     0.862040000000     0.796900000000     0          
T        Si     0.282106666667     0.969293333333     0.760103333333     0          
T        Si     0.304156666667     0.778583333333     0.676706666667     0          
T        Si     0.285470000000     0.889053333333     0.725680000000     0          
T        Si     0.224390000000     0.993363333333     0.833836666667     0          
T        Si     0.320263333333     0.695373333333     0.703100000000     0          
T        Si     0.282106666667     0.864040000000     0.926770000000     0          
T        Si     0.304156666667     0.721416666667     0.843373333333     0          
T        Si     0.285470000000     0.944280000000     0.892346666667     0          
T        Si     0.224390000000     0.839970000000     0.667170000000     0          
T        Si     0.320263333333     0.804626666667     0.869766666667     0          
T        Si     0.051226666667     0.697373333333     0.906563333333     0          
T        Si     0.029176666667     0.888083333333     0.989960000000     0          
T        Si     0.047863333333     0.777613333333     0.940986666667     0          
T        Si     0.108943333333     0.673303333333     0.832830000000     0          
T        Si     0.013070000000     0.971293333333     0.963566666667     0          
T        Si     0.384560000000     0.135960000000     0.073230000000     0          
T        Si     0.362510000000     0.278583333333     0.156626666667     0          
T        Si     0.381196666667     0.055720000000     0.107653333333     0          
T        Si     0.442276666667     0.160030000000     0.332830000000     0          
T        Si     0.346403333333     0.195373333333     0.130233333333     0          
T        Si     0.615440000000     0.302626666667     0.093436666667     0          
T        Si     0.637490000000     0.111916666667     0.010040000000     0          
T        Si     0.618803333333     0.222386666667     0.059013333333     0          
T        Si     0.557723333333     0.326696666667     0.167170000000     0          
T        Si     0.653596666667     0.028706666667     0.036433333333     0          
T        Si     0.615440000000     0.197373333333     0.260103333333     0          
T        Si     0.637490000000     0.054750000000     0.176706666667     0          
T        Si     0.618803333333     0.277613333333     0.225680000000     0          
T        Si     0.557723333333     0.173303333333     0.000503333333     0          
T        Si     0.653596666667     0.137960000000     0.203100000000     0          
T        Si     0.384560000000     0.030706666667     0.239896666667     0          
T        Si     0.362510000000     0.221416666667     0.323293333333     0          
T        Si     0.381196666667     0.110946666667     0.274320000000     0          
T        Si     0.442276666667     0.006636666667     0.166163333333     0          
T        Si     0.346403333333     0.304626666667     0.296900000000     0          
T        Si     0.384560000000     0.135960000000     0.406563333333     0          
T        Si     0.362510000000     0.278583333333     0.489960000000     0          
T        Si     0.381196666667     0.055720000000     0.440986666667     0          
T        Si     0.442276666667     0.160030000000     0.666163333333     0          
T        Si     0.346403333333     0.195373333333     0.463566666667     0          
T        Si     0.615440000000     0.302626666667     0.426770000000     0          
T        Si     0.637490000000     0.111916666667     0.343373333333     0          
T        Si     0.618803333333     0.222386666667     0.392346666667     0          
T        Si     0.557723333333     0.326696666667     0.500503333333     0          
T        Si     0.653596666667     0.028706666667     0.369766666667     0          
T        Si     0.615440000000     0.197373333333     0.593436666667     0          
T        Si     0.637490000000     0.054750000000     0.510040000000     0          
T        Si     0.618803333333     0.277613333333     0.559013333333     0          
T        Si     0.557723333333     0.173303333333     0.333836666667     0          
T        Si     0.653596666667     0.137960000000     0.536433333333     0          
T        Si     0.384560000000     0.030706666667     0.573230000000     0          
T        Si     0.362510000000     0.221416666667     0.656626666667     0          
T        Si     0.381196666667     0.110946666667     0.607653333333     0          
T        Si     0.442276666667     0.006636666667     0.499496666667     0          
T        Si     0.346403333333     0.304626666667     0.630233333333     0          
T        Si     0.384560000000     0.135960000000     0.739896666667     0          
T        Si     0.362510000000     0.278583333333     0.823293333333     0          
T        Si     0.381196666667     0.055720000000     0.774320000000     0          
T        Si     0.442276666667     0.160030000000     0.999496666667     0          
T        Si     0.346403333333     0.195373333333     0.796900000000     0          
T        Si     0.615440000000     0.302626666667     0.760103333333     0          
T        Si     0.637490000000     0.111916666667     0.676706666667     0          
T        Si     0.618803333333     0.222386666667     0.725680000000     0          
T        Si     0.557723333333     0.326696666667     0.833836666667     0          
T        Si     0.653596666667     0.028706666667     0.703100000000     0          
T        Si     0.615440000000     0.197373333333     0.926770000000     0          
T        Si     0.637490000000     0.054750000000     0.843373333333     0          
T        Si     0.618803333333     0.277613333333     0.892346666667     0          
T        Si     0.557723333333     0.173303333333     0.667170000000     0          
T        Si     0.653596666667     0.137960000000     0.869766666667     0          
T        Si     0.384560000000     0.030706666667     0.906563333333     0          
T        Si     0.362510000000     0.221416666667     0.989960000000     0          
T        Si     0.381196666667     0.110946666667     0.940986666667     0          
T        Si     0.442276666667     0.006636666667     0.832830000000     0          
T        Si     0.346403333333     0.304626666667     0.963566666667     0          
T        Si     0.384560000000     0.469293333333     0.073230000000     0          
T        Si     0.362510000000     0.611916666667     0.156626666667     0          
T        Si     0.381196666667     0.389053333333     0.107653333333     0          
T        Si     0.442276666667     0.493363333333     0.332830000000     0          
T        Si     0.346403333333     0.528706666667     0.130233333333     0          
T        Si     0.615440000000     0.635960000000     0.093436666667     0          
T        Si     0.637490000000     0.445250000000     0.010040000000     0          
T        Si     0.618803333333     0.555720000000     0.059013333333     0          
T        Si     0.557723333333     0.660030000000     0.167170000000     0          
T        Si     0.653596666667     0.362040000000     0.036433333333     0          
T        Si     0.615440000000     0.530706666667     0.260103333333     0          
T        Si     0.637490000000     0.388083333333     0.176706666667     0          
T        Si     0.618803333333     0.610946666667     0.225680000000     0          
T        Si     0.557723333333     0.506636666667     0.000503333333     0          
T        Si     0.653596666667     0.471293333333     0.203100000000     0          
T        Si     0.384560000000     0.364040000000     0.239896666667     0          
T        Si     0.362510000000     0.554750000000     0.323293333333     0          
T        Si     0.381196666667     0.444280000000     0.274320000000     0          
T        Si     0.442276666667     0.339970000000     0.166163333333     0          
T        Si     0.346403333333     0.637960000000     0.296900000000     0          
T        Si     0.384560000000     0.469293333333     0.406563333333     0          
T        Si     0.362510000000     0.611916666667     0.489960000000     0          
T        Si     0.381196666667     0.389053333333     0.440986666667     0          
T        Si     0.442276666667     0.493363333333     0.666163333333     0          
T        Si     0.346403333333     0.528706666667     0.463566666667     0          
T        Si     0.615440000000     0.635960000000     0.426770000000     0          
T        Si     0.637490000000     0.445250000000     0.343373333333     0          
T        Si     0.618803333333     0.555720000000     0.392346666667     0          
T        Si     0.557723333333     0.660030000000     0.500503333333     0          
T        Si     0.653596666667     0.362040000000     0.369766666667     0          
T        Si     0.615440000000     0.530706666667     0.593436666667     0          
T        Si     0.637490000000     0.388083333333     0.510040000000     0          
T        Si     0.618803333333     0.610946666667     0.559013333333     0          
T        Si     0.557723333333     0.506636666667     0.333836666667     0          
T        Si     0.653596666667     0.471293333333     0.536433333333     0          
T        Si     0.384560000000     0.364040000000     0.573230000000     0          
T        Si     0.362510000000     0.554750000000     0.656626666667     0          
T        Si     0.381196666667     0.444280000000     0.607653333333     0          
T        Si     0.442276666667     0.339970000000     0.499496666667     0          
T        Si     0.346403333333     0.637960000000     0.630233333333     0          
T        Si     0.384560000000     0.469293333333     0.739896666667     0          
T        Si     0.362510000000     0.611916666667     0.823293333333     0          
T        Si     0.381196666667     0.389053333333     0.774320000000     0          
T        Si     0.442276666667     0.493363333333     0.999496666667     0          
T        Si     0.346403333333     0.528706666667     0.796900000000     0          
T        Si     0.615440000000     0.635960000000     0.760103333333     0          
T        Si     0.637490000000     0.445250000000     0.676706666667     0          
T        Si     0.618803333333     0.555720000000     0.725680000000     0          
T        Si     0.557723333333     0.660030000000     0.833836666667     0          
T        Si     0.653596666667     0.362040000000     0.703100000000     0          
T        Si     0.615440000000     0.530706666667     0.926770000000     0          
T        Si     0.637490000000     0.388083333333     0.843373333333     0          
T        Si     0.618803333333     0.610946666667     0.892346666667     0          
T        Si     0.557723333333     0.506636666667     0.667170000000     0          
T        Si     0.653596666667     0.471293333333     0.869766666667     0          
T        Si     0.384560000000     0.364040000000     0.906563333333     0          
T        Si     0.362510000000     0.554750000000     0.989960000000     0          
T        Si     0.381196666667     0.444280000000     0.940986666667     0          
T        Si     0.442276666667     0.339970000000     0.832830000000     0          
T        Si     0.346403333333     0.637960000000     0.963566666667     0          
T        Si     0.384560000000     0.802626666667     0.073230000000     0          
T        Si     0.362510000000     0.945250000000     0.156626666667     0          
T        Si     0.381196666667     0.722386666667     0.107653333333     0          
T        Si     0.442276666667     0.826696666667     0.332830000000     0          
T        Si     0.346403333333     0.862040000000     0.130233333333     0          
T        Si     0.615440000000     0.969293333333     0.093436666667     0          
T        Si     0.637490000000     0.778583333333     0.010040000000     0          
T        Si     0.618803333333     0.889053333333     0.059013333333     0          
T        Si     0.557723333333     0.993363333333     0.167170000000     0          
T        Si     0.653596666667     0.695373333333     0.036433333333     0          
T        Si     0.615440000000     0.864040000000     0.260103333333     0          
T        Si     0.637490000000     0.721416666667     0.176706666667     0          
T        Si     0.618803333333     0.944280000000     0.225680000000     0          
T        Si     0.557723333333     0.839970000000     0.000503333333     0          
T        Si     0.653596666667     0.804626666667     0.203100000000     0          
T        Si     0.384560000000     0.697373333333     0.239896666667     0          
T        Si     0.362510000000     0.888083333333     0.323293333333     0          
T        Si     0.381196666667     0.777613333333     0.274320000000     0          
T        Si     0.442276666667     0.673303333333     0.166163333333     0          
T        Si     0.346403333333     0.971293333333     0.296900000000     0          
T        Si     0.384560000000     0.802626666667     0.406563333333     0          
T        Si     0.362510000000     0.945250000000     0.489960000000     0          
T        Si     0.381196666667     0.722386666667     0.440986666667     0          
T        Si     0.442276666667     0.826696666667     0.666163333333     0          
T        Si     0.346403333333     0.862040000000     0.463566666667     0          
T        Si     0.615440000000     0.969293333333     0.426770000000     0          
T        Si     0.637490000000     0.778583333333     0.343373333333     0          
T        Si     0.618803333333     0.889053333333     0.392346666667     0          
T        Si     0.557723333333     0.993363333333     0.500503333333     0          
T        Si     0.653596666667     0.695373333333     0.369766666667     0          
T        Si     0.615440000000     0.864040000000     0.593436666667     0          
T        Si     0.637490000000     0.721416666667     0.510040000000     0          
T        Si     0.618803333333     0.944280000000     0.559013333333     0          
T        Si     0.557723333333     0.839970000000     0.333836666667     0          
T        Si     0.653596666667     0.804626666667     0.536433333333     0          
T        Si     0.384560000000     0.697373333333     0.573230000000     0          
T        Si     0.362510000000     0.888083333333     0.656626666667     0          
T        Si     0.381196666667     0.777613333333     0.607653333333     0          
T        Si     0.442276666667     0.673303333333     0.499496666667     0          
T        Si     0.346403333333     0.971293333333     0.630233333333     0          
T        Si     0.384560000000     0.802626666667     0.739896666667     0          
T        Si     0.362510000000     0.945250000000     0.823293333333     0          
T        Si     0.381196666667     0.722386666667     0.774320000000     0          
T        Si     0.442276666667     0.826696666667     0.999496666667     0          
T        Si     0.346403333333     0.862040000000     0.796900000000     0          
T        Si     0.615440000000     0.969293333333     0.760103333333     0          
T        Si     0.637490000000     0.778583333333     0.676706666667     0          
T        Si     0.618803333333     0.889053333333     0.725680000000     0          
T        Si     0.557723333333     0.993363333333     0.833836666667     0          
T        Si     0.653596666667     0.695373333333     0.703100000000     0          
T        Si     0.615440000000     0.864040000000     0.926770000000     0          
T        Si     0.637490000000     0.721416666667     0.843373333333     0          
T        Si     0.618803333333     0.944280000000     0.892346666667     0          
T        Si     0.557723333333     0.839970000000     0.667170000000     0          
T        Si     0.653596666667     0.804626666667     0.869766666667     0          
T        Si     0.384560000000     0.697373333333     0.906563333333     0          
T        Si     0.362510000000     0.888083333333     0.989960000000     0          
T        Si     0.381196666667     0.777613333333     0.940986666667     0          
T        Si     0.442276666667     0.673303333333     0.832830000000     0          
T        Si     0.346403333333     0.971293333333     0.963566666667     0          
T        Si     0.717893333333     0.135960000000     0.073230000000     0          
T        Si     0.695843333333     0.278583333333     0.156626666667     0          
T        Si     0.714530000000     0.055720000000     0.107653333333     0          
T        Si     0.775610000000     0.160030000000     0.332830000000     0          
T        Si     0.679736666667     0.195373333333     0.130233333333     0          
T        Si     0.948773333333     0.302626666667     0.093436666667     0          
T        Si     0.970823333333     0.111916666667     0.010040000000     0          
T        Si     0.952136666667     0.222386666667     0.059013333333     0          
T        Si     0.891056666667     0.326696666667     0.167170000000     0          
T        Si     0.986930000000     0.028706666667     0.036433333333     0          
T        Si     0.948773333333     0.197373333333     0.260103333333     0          
T        Si     0.970823333333     0.054750000000     0.176706666667     0          
T        Si     0.952136666667     0.277613333333     0.225680000000     0          
T        Si     0.891056666667     0.173303333333     0.000503333333     0          
T        Si     0.986930000000     0.137960000000     0.203100000000     0          
T        Si     0.717893333333     0.030706666667     0.239896666667     0          
T        Si     0.695843333333     0.221416666667     0.323293333333     0          
T        Si     0.714530000000     0.110946666667     0.274320000000     0          
T        Si     0.775610000000     0.006636666667     0.166163333333     0          
T        Si     0.679736666667     0.304626666667     0.296900000000     0          
T        Si     0.717893333333     0.135960000000     0.406563333333     0          
T        Si     0.695843333333     0.278583333333     0.489960000000     0          
T        Si     0.714530000000     0.055720000000     0.440986666667     0          
T        Si     0.775610000000     0.160030000000     0.666163333333     0          
T        Si     0.679736666667     0.195373333333     0.463566666667     0          
T        Si     0.948773333333     0.302626666667     0.426770000000     0          
T        Si     0.970823333333     0.111916666667     0.343373333333     0          
T        Si     0.952136666667     0.222386666667     0.392346666667     0          
T        Si     0.891056666667     0.326696666667     0.500503333333     0          
T        Si     0.986930000000     0.028706666667     0.369766666667     0          
T        Si     0.948773333333     0.197373333333     0.593436666667     0          
T        Si     0.970823333333     0.054750000000     0.510040000000     0          
T        Si     0.952136666667     0.277613333333     0.559013333333     0          
T        Si     0.891056666667     0.173303333333     0.333836666667     0          
T        Si     0.986930000000     0.137960000000     0.536433333333     0          
T        Si     0.717893333333     0.030706666667     0.573230000000     0          
T        Si     0.695843333333     0.221416666667     0.656626666667     0          
T        Si     0.714530000000     0.110946666667     0.607653333333     0          
T        Si     0.775610000000     0.006636666667     0.499496666667     0          
T        Si     0.679736666667     0.304626666667     0.630233333333     0          
T        Si     0.717893333333     0.135960000000     0.739896666667     0          
T        Si     0.695843333333     0.278583333333     0.823293333333     0          
T        Si     0.714530000000     0.055720000000     0.774320000000     0          
T        Si     0.775610000000     0.160030000000     0.999496666667     0          
T        Si     0.679736666667     0.195373333333     0.796900000000     0          
T        Si     0.948773333333     0.302626666667     0.760103333333     0          
T        Si     0.970823333333     0.111916666667     0.676706666667     0          
T        Si     0.952136666667     0.222386666667     0.725680000000     0          
T        Si     0.891056666667     0.326696666667     0.833836666667     0          
T        Si     0.986930000000     0.028706666667     0.703100000000     0          
T        Si     0.948773333333     0.197373333333     0.926770000000     0          
T        Si     0.970823333333     0.054750000000     0.843373333333     0          
T        Si     0.952136666667     0.277613333333     0.892346666667     0          
T        Si     0.891056666667     0.173303333333     0.667170000000     0          
T        Si     0.986930000000     0.137960000000     0.869766666667     0          
T        Si     0.717893333333     0.030706666667     0.906563333333     0          
T        Si     0.695843333333     0.221416666667     0.989960000000     0          
T        Si     0.714530000000     0.110946666667     0.940986666667     0          
T        Si     0.775610000000     0.006636666667     0.832830000000     0          
T        Si     0.679736666667     0.304626666667     0.963566666667     0          
T        Si     0.717893333333     0.469293333333     0.073230000000     0          
T        Si     0.695843333333     0.611916666667     0.156626666667     0          
T        Si     0.714530000000     0.389053333333     0.107653333333     0          
T        Si     0.775610000000     0.493363333333     0.332830000000     0          
T        Si     0.679736666667     0.528706666667     0.130233333333     0          
T        Si     0.948773333333     0.635960000000     0.093436666667     0          
T        Si     0.970823333333     0.445250000000     0.010040000000     0          
T        Si     0.952136666667     0.555720000000     0.059013333333     0          
T        Si     0.891056666667     0.660030000000     0.167170000000     0          
T        Si     0.986930000000     0.362040000000     0.036433333333     0          
T        Si     0.948773333333     0.530706666667     0.260103333333     0          
T        Si     0.970823333333     0.388083333333     0.176706666667     0          
T        Si     0.952136666667     0.610946666667     0.225680000000     0          
T        Si     0.891056666667     0.506636666667     0.000503333333     0          
T        Si     0.986930000000     0.471293333333     0.203100000000     0          
T        Si     0.717893333333     0.364040000000     0.239896666667     0          
T        Si     0.695843333333     0.554750000000     0.323293333333     0          
T        Si     0.714530000000     0.444280000000     0.274320000000     0          
T        Si     0.775610000000     0.339970000000     0.166163333333     0          
T        Si     0.679736666667     0.637960000000     0.296900000000     0          
T        Si     0.717893333333     0.469293333333     0.406563333333     0          
T        Si     0.695843333333     0.611916666667     0.489960000000     0          
T        Si     0.714530000000     0.389053333333     0.440986666667     0          
T        Si     0.775610000000     0.493363333333     0.666163333333     0          
T        Si     0.679736666667     0.528706666667     0.463566666667     0          
T        Si     0.948773333333     0.635960000000     0.426770000000     0          
T        Si     0.970823333333     0.445250000000     0.343373333333     0          
T        Si     0.952136666667     0.555720000000     0.392346666667     0          
T        Si     0.891056666667     0.660030000000     0.500503333333     0          
T        Si     0.986930000000     0.362040000000     0.369766666667     0          
T        Si     0.948773333333     0.530706666667     0.593436666667     0          
T        Si     0.970823333333     0.388083333333     0.510040000000     0          
T        Si     0.952136666667     0.610946666667     0.559013333333     0          
T        Si     0.891056666667     0.506636666667     0.333836666667     0          
T        Si     0.986930000000     0.471293333333     0.536433333333     0          
T        Si     0.717893333333     0.364040000000     0.573230000000     0          
T        Si     0.695843333333     0.554750000000     0.656626666667     0          
T        Si     0.714530000000     0.444280000000     0.607653333333     0          
T        Si     0.775610000000     0.339970000000     0.499496666667     0          
T        Si     0.679736666667     0.637960000000     0.630233333333     0          
T        Si     0.717893333333     0.469293333333     0.739896666667     0          
T        Si     0.695843333333     0.611916666667     0.823293333333     0          
T        Si     0.714530000000     0.389053333333     0.774320000000     0          
T        Si     0.775610000000     0.493363333333     0.999496666667     0          
T        Si     0.679736666667     0.528706666667     0.796900000000     0          
T        Si     0.948773333333     0.635960000000     0.760103333333     0          
T        Si     0.970823333333     0.445250000000     0.676706666667     0          
T        Si     0.952136666667     0.555720000000     0.725680000000     0          
T        Si     0.891056666667     0.660030000000     0.833836666667     0          
T        Si     0.986930000000     0.362040000000     0.703100000000     0          
T        Si     0.948773333333     0.530706666667     0.926770000000     0          
T        Si     0.970823333333     0.388083333333     0.843373333333     0          
T        Si     0.952136666667     0.610946666667     0.892346666667     0          
T        Si     0.891056666667     0.506636666667     0.667170000000     0          
T        Si     0.986930000000     0.471293333333     0.869766666667     0          
T        Si     0.717893333333     0.364040000000     0.906563333333     0          
T        Si     0.695843333333     0.554750000000     0.989960000000     0          
T        Si     0.714530000000     0.444280000000     0.940986666667     0          
T        Si     0.775610000000     0.339970000000     0.832830000000     0          
T        Si     0.679736666667     0.637960000000     0.963566666667     0          
T        Si     0.717893333333     0.802626666667     0.073230000000     0          
T        Si     0.695843333333     0.945250000000     0.156626666667     0          
T        Si     0.714530000000     0.722386666667     0.107653333333     0          
T        Si     0.775610000000     0.826696666667     0.332830000000     0          
T        Si     0.679736666667     0.862040000000     0.130233333333     0          
T        Si     0.948773333333     0.969293333333     0.093436666667     0          
T        Si     0.970823333333     0.778583333333     0.010040000000     0          
T        Si     0.952136666667     0.889053333333     0.059013333333     0          
T        Si     0.891056666667     0.993363333333     0.167170000000     0          
T        Si     0.986930000000     0.695373333333     0.036433333333     0          
T        Si     0.948773333333     0.864040000000     0.260103333333     0          
T        Si     0.970823333333     0.721416666667     0.176706666667     0          
T        Si     0.952136666667     0.944280000000     0.225680000000     0          
T        Si     0.891056666667     0.839970000000     0.000503333333     0          
T        Si     0.986930000000     0.804626666667     0.203100000000     0          
T        Si     0.717893333333     0.697373333333     0.239896666667     0          
T        Si     0.695843333333     0.888083333333     0.323293333333     0          
T        Si     0.714530000000     0.777613333333     0.274320000000     0          
T        Si     0.775610000000     0.673303333333     0.166163333333     0          
T        Si     0.679736666667     0.971293333333     0.296900000000     0          
T        Si     0.717893333333     0.802626666667     0.406563333333     0          
T        Si     0.695843333333     0.945250000000     0.489960000000     0          
T        Si     0.714530000000     0.722386666667     0.440986666667     0          
T        Si     0.775610000000     0.826696666667     0.666163333333     0          
T        Si     0.679736666667     0.862040000000     0.463566666667     0          
T        Si     0.948773333333     0.969293333333     0.426770000000     0          
T        Si     0.970823333333     0.778583333333     0.343373333333     0          
T        Si     0.952136666667     0.889053333333     0.392346666667     0          
T        Si     0.891056666667     0.993363333333     0.500503333333     0          
T        Si     0.986930000000     0.695373333333     0.369766666667     0          
T        Si     0.948773333333     0.864040000000     0.593436666667     0          
T        Si     0.970823333333     0.721416666667     0.510040000000     0          
T        Si     0.952136666667     0.944280000000     0.559013333333     0          
T        Si     0.891056666667     0.839970000000     0.333836666667     0          
T        Si     0.986930000000     0.804626666667     0.536433333333     0          
T        Si     0.717893333333     0.697373333333     0.573230000000     0          
T        Si     0.695843333333     0.888083333333     0.656626666667     0          
T        Si     0.714530000000     0.777613333333     0.607653333333     0          
T        Si     0.775610000000     0.673303333333     0.499496666667     0          
T        Si     0.679736666667     0.971293333333     0.630233333333     0          
T        Si     0.717893333333     0.802626666667     0.739896666667     0          
T        Si     0.695843333333     0.945250000000     0.823293333333     0          
T        Si     0.714530000000     0.722386666667     0.774320000000     0          
T        Si     0.775610000000     0.826696666667     0.999496666667     0          
T        Si     0.679736666667     0.862040000000     0.796900000000     0          
T        Si     0.948773333333     0.969293333333     0.760103333333     0          
T        Si     0.970823333333     0.778583333333     0.676706666667     0          
T        Si     0.952136666667     0.889053333333     0.725680000000     0          
T        Si     0.891056666667     0.993363333333     0.833836666667     0          
T        Si     0.986930000000     0.695373333333     0.703100000000     0          
T        Si     0.948773333333     0.864040000000     0.926770000000     0          
T        Si     0.970823333333     0.721416666667     0.843373333333     0          
T        Si     0.952136666667     0.944280000000     0.892346666667     0          
T        Si     0.891056666667     0.839970000000     0.667170000000     0          
T        Si     0.986930000000     0.804626666667     0.869766666667     0          
T        Si     0.717893333333     0.697373333333     0.906563333333     0          
T        Si     0.695843333333     0.888083333333     0.989960000000     0          
T        Si     0.714530000000     0.777613333333     0.940986666667     0          
T        Si     0.775610000000     0.673303333333     0.832830000000     0          
T        Si     0.679736666667     0.971293333333     0.963566666667     0          
O        O      0.049890000000     0.174640000000     0.099880000000     0          
O        O      0.000300000000     0.130386666667     0.048483333333     0          
O        O      0.060473333333     0.100446666667     0.103820000000     0          
O        O      0.094376666667     0.138750000000     0.041126666667     0          
O        O      0.252516666667     0.133083333333     0.004116666667     0          
O        O      0.001416666667     0.049783333333     0.135766666667     0          
O        O      0.037600000000     0.233763333333     0.148366666667     0          
O        O      0.093660000000     0.033136666667     0.127566666667     0          
O        O      0.035730000000     0.039323333333     0.062383333333     0          
O        O      0.166666666667     0.000000000000     0.166666666667     0          
O        O      0.000000000000     0.000000000000     0.000000000000     0          
O        O      0.283443333333     0.007973333333     0.066786666667     0          
O        O      0.333033333333     0.297053333333     0.118183333333     0          
O        O      0.272860000000     0.267113333333     0.062846666667     0          
O        O      0.238956666667     0.305416666667     0.125540000000     0          
O        O      0.080816666667     0.299750000000     0.162550000000     0          
O        O      0.331916666667     0.216450000000     0.030900000000     0          
O        O      0.295733333333     0.067096666667     0.018300000000     0          
O        O      0.239673333333     0.199803333333     0.039100000000     0          
O        O      0.297603333333     0.205990000000     0.104283333333     0          
O        O      0.166666666667     0.166666666667     0.000000000000     0          
O        O      0.000000000000     0.166666666667     0.166666666667     0          
O        O      0.283443333333     0.158693333333     0.233453333333     0          
O        O      0.333033333333     0.202946666667     0.284850000000     0          
O        O      0.272860000000     0.232886666667     0.229513333333     0          
O        O      0.238956666667     0.194583333333     0.292206666667     0          
O        O      0.080816666667     0.200250000000     0.329216666667     0          
O        O      0.331916666667     0.283550000000     0.197566666667     0          
O        O      0.295733333333     0.099570000000     0.184966666667     0          
O        O      0.239673333333     0.300196666667     0.205766666667     0          
O        O      0.297603333333     0.294010000000     0.270950000000     0          
O        O      0.049890000000     0.325360000000     0.266546666667     0          
O        O      0.000300000000     0.036280000000     0.215150000000     0          
O        O      0.060473333333     0.066220000000     0.270486666667     0          
O        O      0.094376666667     0.027916666667     0.207793333333     0          
O        O      0.252516666667     0.033583333333     0.170783333333     0          
O        O      0.001416666667     0.116883333333     0.302433333333     0          
O        O      0.037600000000     0.266236666667     0.315033333333     0          
O        O      0.093660000000     0.133530000000     0.294233333333     0          
O        O      0.035730000000     0.127343333333     0.229050000000     0          
O        O      0.049890000000     0.174640000000     0.433213333333     0          
O        O      0.000300000000     0.130386666667     0.381816666667     0          
O        O      0.060473333333     0.100446666667     0.437153333333     0          
O        O      0.094376666667     0.138750000000     0.374460000000     0          
O        O      0.252516666667     0.133083333333     0.337450000000     0          
O        O      0.001416666667     0.049783333333     0.469100000000     0          
O        O      0.037600000000     0.233763333333     0.481700000000     0          
O        O      0.093660000000     0.033136666667     0.460900000000     0          
O        O      0.035730000000     0.039323333333     0.395716666667     0          
O        O      0.166666666667     0.000000000000     0.500000000000     0          
O        O      0.000000000000     0.000000000000     0.333333333333     0          
O        O      0.283443333333     0.007973333333     0.400120000000     0          
O        O      0.333033333333     0.297053333333     0.451516666667     0          
O        O      0.272860000000     0.267113333333     0.396180000000     0          
O        O      0.238956666667     0.305416666667     0.458873333333     0          
O        O      0.080816666667     0.299750000000     0.495883333333     0          
O        O      0.331916666667     0.216450000000     0.364233333333     0          
O        O      0.295733333333     0.067096666667     0.351633333333     0          
O        O      0.239673333333     0.199803333333     0.372433333333     0          
O        O      0.297603333333     0.205990000000     0.437616666667     0          
O        O      0.166666666667     0.166666666667     0.333333333333     0          
O        O      0.000000000000     0.166666666667     0.500000000000     0          
O        O      0.283443333333     0.158693333333     0.566786666667     0          
O        O      0.333033333333     0.202946666667     0.618183333333     0          
O        O      0.272860000000     0.232886666667     0.562846666667     0          
O        O      0.238956666667     0.194583333333     0.625540000000     0          
O        O      0.080816666667     0.200250000000     0.662550000000     0          
O        O      0.331916666667     0.283550000000     0.530900000000     0          
O        O      0.295733333333     0.099570000000     0.518300000000     0          
O        O      0.239673333333     0.300196666667     0.539100000000     0          
O        O      0.297603333333     0.294010000000     0.604283333333     0          
O        O      0.049890000000     0.325360000000     0.599880000000     0          
O        O      0.000300000000     0.036280000000     0.548483333333     0          
O        O      0.060473333333     0.066220000000     0.603820000000     0          
O        O      0.094376666667     0.027916666667     0.541126666667     0          
O        O      0.252516666667     0.033583333333     0.504116666667     0          
O        O      0.001416666667     0.116883333333     0.635766666667     0          
O        O      0.037600000000     0.266236666667     0.648366666667     0          
O        O      0.093660000000     0.133530000000     0.627566666667     0          
O        O      0.035730000000     0.127343333333     0.562383333333     0          
O        O      0.049890000000     0.174640000000     0.766546666667     0          
O        O      0.000300000000     0.130386666667     0.715150000000     0          
O        O      0.060473333333     0.100446666667     0.770486666667     0          
O        O      0.094376666667     0.138750000000     0.707793333333     0          
O        O      0.252516666667     0.133083333333     0.670783333333     0          
O        O      0.001416666667     0.049783333333     0.802433333333     0          
O        O      0.037600000000     0.233763333333     0.815033333333     0          
O        O      0.093660000000     0.033136666667     0.794233333333     0          
O        O      0.035730000000     0.039323333333     0.729050000000     0          
O        O      0.166666666667     0.000000000000     0.833333333333     0          
O        O      0.000000000000     0.000000000000     0.666666666667     0          
O        O      0.283443333333     0.007973333333     0.733453333333     0          
O        O      0.333033333333     0.297053333333     0.784850000000     0          
O        O      0.272860000000     0.267113333333     0.729513333333     0          
O        O      0.238956666667     0.305416666667     0.792206666667     0          
O        O      0.080816666667     0.299750000000     0.829216666667     0          
O        O      0.331916666667     0.216450000000     0.697566666667     0          
O        O      0.295733333333     0.067096666667     0.684966666667     0          
O        O      0.239673333333     0.199803333333     0.705766666667     0          
O        O      0.297603333333     0.205990000000     0.770950000000     0          
O        O      0.166666666667     0.166666666667     0.666666666667     0          
O        O      0.000000000000     0.166666666667     0.833333333333     0          
O        O      0.283443333333     0.158693333333     0.900120000000     0          
O        O      0.333033333333     0.202946666667     0.951516666667     0          
O        O      0.272860000000     0.232886666667     0.896180000000     0          
O        O      0.238956666667     0.194583333333     0.958873333333     0          
O        O      0.080816666667     0.200250000000     0.995883333333     0          
O        O      0.331916666667     0.283550000000     0.864233333333     0          
O        O      0.295733333333     0.099570000000     0.851633333333     0          
O        O      0.239673333333     0.300196666667     0.872433333333     0          
O        O      0.297603333333     0.294010000000     0.937616666667     0          
O        O      0.049890000000     0.325360000000     0.933213333333     0          
O        O      0.000300000000     0.036280000000     0.881816666667     0          
O        O      0.060473333333     0.066220000000     0.937153333333     0          
O        O      0.094376666667     0.027916666667     0.874460000000     0          
O        O      0.252516666667     0.033583333333     0.837450000000     0          
O        O      0.001416666667     0.116883333333     0.969100000000     0          
O        O      0.037600000000     0.266236666667     0.981700000000     0          
O        O      0.093660000000     0.133530000000     0.960900000000     0          
O        O      0.035730000000     0.127343333333     0.895716666667     0          
O        O      0.049890000000     0.507973333333     0.099880000000     0          
O        O      0.000300000000     0.463720000000     0.048483333333     0          
O        O      0.060473333333     0.433780000000     0.103820000000     0          
O        O      0.094376666667     0.472083333333     0.041126666667     0          
O        O      0.252516666667     0.466416666667     0.004116666667     0          
O        O      0.001416666667     0.383116666667     0.135766666667     0          
O        O      0.037600000000     0.567096666667     0.148366666667     0          
O        O      0.093660000000     0.366470000000     0.127566666667     0          
O        O      0.035730000000     0.372656666667     0.062383333333     0          
O        O      0.166666666667     0.333333333333     0.166666666667     0          
O        O      0.000000000000     0.333333333333     0.000000000000     0          
O        O      0.283443333333     0.341306666667     0.066786666667     0          
O        O      0.333033333333     0.630386666667     0.118183333333     0          
O        O      0.272860000000     0.600446666667     0.062846666667     0          
O        O      0.238956666667     0.638750000000     0.125540000000     0          
O        O      0.080816666667     0.633083333333     0.162550000000     0          
O        O      0.331916666667     0.549783333333     0.030900000000     0          
O        O      0.295733333333     0.400430000000     0.018300000000     0          
O        O      0.239673333333     0.533136666667     0.039100000000     0          
O        O      0.297603333333     0.539323333333     0.104283333333     0          
O        O      0.166666666667     0.500000000000     0.000000000000     0          
O        O      0.000000000000     0.500000000000     0.166666666667     0          
O        O      0.283443333333     0.492026666667     0.233453333333     0          
O        O      0.333033333333     0.536280000000     0.284850000000     0          
O        O      0.272860000000     0.566220000000     0.229513333333     0          
O        O      0.238956666667     0.527916666667     0.292206666667     0          
O        O      0.080816666667     0.533583333333     0.329216666667     0          
O        O      0.331916666667     0.616883333333     0.197566666667     0          
O        O      0.295733333333     0.432903333333     0.184966666667     0          
O        O      0.239673333333     0.633530000000     0.205766666667     0          
O        O      0.297603333333     0.627343333333     0.270950000000     0          
O        O      0.049890000000     0.658693333333     0.266546666667     0          
O        O      0.000300000000     0.369613333333     0.215150000000     0          
O        O      0.060473333333     0.399553333333     0.270486666667     0          
O        O      0.094376666667     0.361250000000     0.207793333333     0          
O        O      0.252516666667     0.366916666667     0.170783333333     0          
O        O      0.001416666667     0.450216666667     0.302433333333     0          
O        O      0.037600000000     0.599570000000     0.315033333333     0          
O        O      0.093660000000     0.466863333333     0.294233333333     0          
O        O      0.035730000000     0.460676666667     0.229050000000     0          
O        O      0.049890000000     0.507973333333     0.433213333333     0          
O        O      0.000300000000     0.463720000000     0.381816666667     0          
O        O      0.060473333333     0.433780000000     0.437153333333     0          
O        O      0.094376666667     0.472083333333     0.374460000000     0          
O        O      0.252516666667     0.466416666667     0.337450000000     0          
O        O      0.001416666667     0.383116666667     0.469100000000     0          
O        O      0.037600000000     0.567096666667     0.481700000000     0          
O        O      0.093660000000     0.366470000000     0.460900000000     0          
O        O      0.035730000000     0.372656666667     0.395716666667     0          
O        O      0.166666666667     0.333333333333     0.500000000000     0          
O        O      0.000000000000     0.333333333333     0.333333333333     0          
O        O      0.283443333333     0.341306666667     0.400120000000     0          
O        O      0.333033333333     0.630386666667     0.451516666667     0          
O        O      0.272860000000     0.600446666667     0.396180000000     0          
O        O      0.238956666667     0.638750000000     0.458873333333     0          
O        O      0.080816666667     0.633083333333     0.495883333333     0          
O        O      0.331916666667     0.549783333333     0.364233333333     0          
O        O      0.295733333333     0.400430000000     0.351633333333     0          
O        O      0.239673333333     0.533136666667     0.372433333333     0          
O        O      0.297603333333     0.539323333333     0.437616666667     0          
O        O      0.166666666667     0.500000000000     0.333333333333     0          
O        O      0.000000000000     0.500000000000     0.500000000000     0          
O        O      0.283443333333     0.492026666667     0.566786666667     0          
O        O      0.333033333333     0.536280000000     0.618183333333     0          
O        O      0.272860000000     0.566220000000     0.562846666667     0          
O        O      0.238956666667     0.527916666667     0.625540000000     0          
O        O      0.080816666667     0.533583333333     0.662550000000     0          
O        O      0.331916666667     0.616883333333     0.530900000000     0          
O        O      0.295733333333     0.432903333333     0.518300000000     0          
O        O      0.239673333333     0.633530000000     0.539100000000     0          
O        O      0.297603333333     0.627343333333     0.604283333333     0          
O        O      0.049890000000     0.658693333333     0.599880000000     0          
O        O      0.000300000000     0.369613333333     0.548483333333     0          
O        O      0.060473333333     0.399553333333     0.603820000000     0          
O        O      0.094376666667     0.361250000000     0.541126666667     0          
O        O      0.252516666667     0.366916666667     0.504116666667     0          
O        O      0.001416666667     0.450216666667     0.635766666667     0          
O        O      0.037600000000     0.599570000000     0.648366666667     0          
O        O      0.093660000000     0.466863333333     0.627566666667     0          
O        O      0.035730000000     0.460676666667     0.562383333333     0          
O        O      0.049890000000     0.507973333333     0.766546666667     0          
O        O      0.000300000000     0.463720000000     0.715150000000     0          
O        O      0.060473333333     0.433780000000     0.770486666667     0          
O        O      0.094376666667     0.472083333333     0.707793333333     0          
O        O      0.252516666667     0.466416666667     0.670783333333     0          
O        O      0.001416666667     0.383116666667     0.802433333333     0          
O        O      0.037600000000     0.567096666667     0.815033333333     0          
O        O      0.093660000000     0.366470000000     0.794233333333     0          
O        O      0.035730000000     0.372656666667     0.729050000000     0          
O        O      0.166666666667     0.333333333333     0.833333333333     0          
O        O      0.000000000000     0.333333333333     0.666666666667     0          
O        O      0.283443333333     0.341306666667     0.733453333333     0          
O        O      0.333033333333     0.630386666667     0.784850000000     0          
O        O      0.272860000000     0.600446666667     0.729513333333     0          
O        O      0.238956666667     0.638750000000     0.792206666667     0          
O        O      0.080816666667     0.633083333333     0.829216666667     0          
O        O      0.331916666667     0.549783333333     0.697566666667     0          
O        O      0.295733333333     0.400430000000     0.684966666667     0          
O        O      0.239673333333     0.533136666667     0.705766666667     0          
O        O      0.297603333333     0.539323333333     0.770950000000     0          
O        O      0.166666666667     0.500000000000     0.666666666667     0          
O        O      0.000000000000     0.500000000000     0.833333333333     0          
O        O      0.283443333333     0.492026666667     0.900120000000     0          
O        O      0.333033333333     0.536280000000     0.951516666667     0          
O        O      0.272860000000     0.566220000000     0.896180000000     0          
O        O      0.238956666667     0.527916666667     0.958873333333     0          
O        O      0.080816666667     0.533583333333     0.995883333333     0          
O        O      0.331916666667     0.616883333333     0.864233333333     0          
O        O      0.295733333333     0.432903333333     0.851633333333     0          
O        O      0.239673333333     0.633530000000     0.872433333333     0          
O        O      0.297603333333     0.627343333333     0.937616666667     0          
O        O      0.049890000000     0.658693333333     0.933213333333     0          
O        O      0.000300000000     0.369613333333     0.881816666667     0          
O        O      0.060473333333     0.399553333333     0.937153333333     0          
O        O      0.094376666667     0.361250000000     0.874460000000     0          
O        O      0.252516666667     0.366916666667     0.837450000000     0          
O        O      0.001416666667     0.450216666667     0.969100000000     0          
O        O      0.037600000000     0.599570000000     0.981700000000     0          
O        O      0.093660000000     0.466863333333     0.960900000000     0          
O        O      0.035730000000     0.460676666667     0.895716666667     0          
O        O      0.049890000000     0.841306666667     0.099880000000     0          
O        O      0.000300000000     0.797053333333     0.048483333333     0          
O        O      0.060473333333     0.767113333333     0.103820000000     0          
O        O      0.094376666667     0.805416666667     0.041126666667     0          
O        O      0.252516666667     0.799750000000     0.004116666667     0          
O        O      0.001416666667     0.716450000000     0.135766666667     0          
O        O      0.037600000000     0.900430000000     0.148366666667     0          
O        O      0.093660000000     0.699803333333     0.127566666667     0          
O        O      0.035730000000     0.705990000000     0.062383333333     0          
O        O      0.166666666667     0.666666666667     0.166666666667     0          
O        O      0.000000000000     0.666666666667     0.000000000000     0          
O        O      0.283443333333     0.674640000000     0.066786666667     0          
O        O      0.333033333333     0.963720000000     0.118183333333     0          
O        O      0.272860000000     0.933780000000     0.062846666667     0          
O        O      0.238956666667     0.972083333333     0.125540000000     0          
O        O      0.080816666667     0.966416666667     0.162550000000     0          
O        O      0.331916666667     0.883116666667     0.030900000000     0          
O        O      0.295733333333     0.733763333333     0.018300000000     0          
O        O      0.239673333333     0.866470000000     0.039100000000     0          
O        O      0.297603333333     0.872656666667     0.104283333333     0          
O        O      0.166666666667     0.833333333333     0.000000000000     0          
O        O      0.000000000000     0.833333333333     0.166666666667     0          
O        O      0.283443333333     0.825360000000     0.233453333333     0          
O        O      0.333033333333     0.869613333333     0.284850000000     0          
O        O      0.272860000000     0.899553333333     0.229513333333     0          
O        O      0.238956666667     0.861250000000     0.292206666667     0          
O        O      0.080816666667     0.866916666667     0.329216666667     0          
O        O      0.331916666667     0.950216666667     0.197566666667     0          
O        O      0.295733333333     0.766236666667     0.184966666667     0          
O        O      0.239673333333     0.966863333333     0.205766666667     0          
O        O      0.297603333333     0.960676666667     0.270950000000     0          
O        O      0.049890000000     0.992026666667     0.266546666667     0          
O        O      0.000300000000     0.702946666667     0.215150000000     0          
O        O      0.060473333333     0.732886666667     0.270486666667     0          
O        O      0.094376666667     0.694583333333     0.207793333333     0          
O        O      0.252516666667     0.700250000000     0.170783333333     0          
O        O      0.001416666667     0.783550000000     0.302433333333     0          
O        O      0.037600000000     0.932903333333     0.315033333333     0          
O        O      0.093660000000     0.800196666667     0.294233333333     0          
O        O      0.035730000000     0.794010000000     0.229050000000     0          
O        O      0.049890000000     0.841306666667     0.433213333333     0          
O        O      0.000300000000     0.797053333333     0.381816666667     0          
O        O      0.060473333333     0.767113333333     0.437153333333     0          
O        O      0.094376666667     0.805416666667     0.374460000000     0          
O        O      0.252516666667     0.799750000000     0.337450000000     0          
O        O      0.001416666667     0.716450000000     0.469100000000     0          
O        O      0.037600000000     0.900430000000     0.481700000000     0          
O        O      0.093660000000     0.699803333333     0.460900000000     0          
O        O      0.035730000000     0.705990000000     0.395716666667     0          
O        O      0.166666666667     0.666666666667     0.500000000000     0          
O        O      0.000000000000     0.666666666667     0.333333333333     0          
O        O      0.283443333333     0.674640000000     0.400120000000     0          
O        O      0.333033333333     0.963720000000     0.451516666667     0          
O        O      0.272860000000     0.933780000000     0.396180000000     0          
O        O      0.238956666667     0.972083333333     0.458873333333     0          
O        O      0.080816666667     0.966416666667     0.495883333333     0          
O        O      0.331916666667     0.883116666667     0.364233333333     0          
O        O      0.295733333333     0.733763333333     0.351633333333     0          
O        O      0.239673333333     0.866470000000     0.372433333333     0          
O        O      0.297603333333     0.872656666667     0.437616666667     0          
O        O      0.166666666667     0.833333333333     0.333333333333     0          
O        O      0.000000000000     0.833333333333     0.500000000000     0          
O        O      0.283443333333     0.825360000000     0.566786666667     0          
O        O      0.333033333333     0.869613333333     0.618183333333     0          
O        O      0.272860000000     0.899553333333     0.562846666667     0          
O        O      0.238956666667     0.861250000000     0.625540000000     0          
O        O      0.080816666667     0.866916666667     0.662550000000     0          
O        O      0.331916666667     0.950216666667     0.530900000000     0          
O        O      0.295733333333     0.766236666667     0.518300000000     0          
O        O      0.239673333333     0.966863333333     0.539100000000     0          
O        O      0.297603333333     0.960676666667     0.604283333333     0          
O        O      0.049890000000     0.992026666667     0.599880000000     0          
O        O      0.000300000000     0.702946666667     0.548483333333     0          
O        O      0.060473333333     0.732886666667     0.603820000000     0          
O        O      0.094376666667     0.694583333333     0.541126666667     0          
O        O      0.252516666667     0.700250000000     0.504116666667     0          
O        O      0.001416666667     0.783550000000     0.635766666667     0          
O        O      0.037600000000     0.932903333333     0.648366666667     0          
O        O      0.093660000000     0.800196666667     0.627566666667     0          
O        O      0.035730000000     0.794010000000     0.562383333333     0          
O        O      0.049890000000     0.841306666667     0.766546666667     0          
O        O      0.000300000000     0.797053333333     0.715150000000     0          
O        O      0.060473333333     0.767113333333     0.770486666667     0          
O        O      0.094376666667     0.805416666667     0.707793333333     0          
O        O      0.252516666667     0.799750000000     0.670783333333     0          
O        O      0.001416666667     0.716450000000     0.802433333333     0          
O        O      0.037600000000     0.900430000000     0.815033333333     0          
O        O      0.093660000000     0.699803333333     0.794233333333     0          
O        O      0.035730000000     0.705990000000     0.729050000000     0          
O        O      0.166666666667     0.666666666667     0.833333333333     0          
O        O      0.000000000000     0.666666666667     0.666666666667     0          
O        O      0.283443333333     0.674640000000     0.733453333333     0          
O        O      0.333033333333     0.963720000000     0.784850000000     0          
O        O      0.272860000000     0.933780000000     0.729513333333     0          
O        O      0.238956666667     0.972083333333     0.792206666667     0          
O        O      0.080816666667     0.966416666667     0.829216666667     0          
O        O      0.331916666667     0.883116666667     0.697566666667     0          
O        O      0.295733333333     0.733763333333     0.684966666667     0          
O        O      0.239673333333     0.866470000000     0.705766666667     0          
O        O      0.297603333333     0.872656666667     0.770950000000     0          
O        O      0.166666666667     0.833333333333     0.666666666667     0          
O        O      0.000000000000     0.833333333333     0.833333333333     0          
O        O      0.283443333333     0.825360000000     0.900120000000     0          
O        O      0.333033333333     0.869613333333     0.951516666667     0          
O        O      0.272860000000     0.899553333333     0.896180000000     0          
O        O      0.238956666667     0.861250000000     0.958873333333     0          
O        O      0.080816666667     0.866916666667     0.995883333333     0          
O        O      0.331916666667     0.950216666667     0.864233333333     0          
O        O      0.295733333333     0.766236666667     0.851633333333     0          
O        O      0.239673333333     0.966863333333     0.872433333333     0          
O        O      0.297603333333     0.960676666667     0.937616666667     0          
O        O      0.049890000000     0.992026666667     0.933213333333     0          
O        O      0.000300000000     0.702946666667     0.881816666667     0          
O        O      0.060473333333     0.732886666667     0.937153333333     0          
O        O      0.094376666667     0.694583333333     0.874460000000     0          
O        O      0.252516666667     0.700250000000     0.837450000000     0          
O        O      0.001416666667     0.783550000000     0.969100000000     0          
O        O      0.037600000000     0.932903333333     0.981700000000     0          
O        O      0.093660000000     0.800196666667     0.960900000000     0          
O        O      0.035730000000     0.794010000000     0.895716666667     0          
O        O      0.383223333333     0.174640000000     0.099880000000     0          
O        O      0.333633333333     0.130386666667     0.048483333333     0          
O        O      0.393806666667     0.100446666667     0.103820000000     0          
O        O      0.427710000000     0.138750000000     0.041126666667     0          
O        O      0.585850000000     0.133083333333     0.004116666667     0          
O        O      0.334750000000     0.049783333333     0.135766666667     0          
O        O      0.370933333333     0.233763333333     0.148366666667     0          
O        O      0.426993333333     0.033136666667     0.127566666667     0          
O        O      0.369063333333     0.039323333333     0.062383333333     0          
O        O      0.500000000000     0.000000000000     0.166666666667     0          
O        O      0.333333333333     0.000000000000     0.000000000000     0          
O        O      0.616776666667     0.007973333333     0.066786666667     0          
O        O      0.666366666667     0.297053333333     0.118183333333     0          
O        O      0.606193333333     0.267113333333     0.062846666667     0          
O        O      0.572290000000     0.305416666667     0.125540000000     0          
O        O      0.414150000000     0.299750000000     0.162550000000     0          
O        O      0.665250000000     0.216450000000     0.030900000000     0          
O        O      0.629066666667     0.067096666667     0.018300000000     0          
O        O      0.573006666667     0.199803333333     0.039100000000     0          
O        O      0.630936666667     0.205990000000     0.104283333333     0          
O        O      0.500000000000     0.166666666667     0.000000000000     0          
O        O      0.333333333333     0.166666666667     0.166666666667     0          
O        O      0.616776666667     0.158693333333     0.233453333333     0          
O        O      0.666366666667     0.202946666667     0.284850000000     0          
O        O      0.606193333333     0.232886666667     0.229513333333     0          
O        O      0.572290000000     0.194583333333     0.292206666667     0          
O        O      0.414150000000     0.200250000000     0.329216666667     0          
O        O      0.665250000000     0.283550000000     0.197566666667     0          
O        O      0.629066666667     0.099570000000     0.184966666667     0          
O        O      0.573006666667     0.300196666667     0.205766666667     0          
O        O      0.630936666667     0.294010000000     0.270950000000     0          
O        O      0.383223333333     0.325360000000     0.266546666667     0          
O        O      0.333633333333     0.036280000000     0.215150000000     0          
O        O      0.393806666667     0.066220000000     0.270486666667     0          
O        O      0.427710000000     0.027916666667     0.207793333333     0          
O        O      0.585850000000     0.033583333333     0.170783333333     0          
O        O      0.334750000000     0.116883333333     0.302433333333     0          
O        O      0.370933333333     0.266236666667     0.315033333333     0          
O        O      0.426993333333     0.133530000000     0.294233333333     0          
O        O      0.369063333333     0.127343333333     0.229050000000     0          
O        O      0.383223333333     0.174640000000     0.433213333333     0          
O        O      0.333633333333     0.130386666667     0.381816666667     0          
O        O      0.393806666667     0.100446666667     0.437153333333     0          
O        O      0.427710000000     0.138750000000     0.374460000000     0          
O        O      0.585850000000     0.133083333333     0.337450000000     0          
O        O      0.334750000000     0.049783333333     0.469100000000     0          
O        O      0.370933333333     0.233763333333     0.481700000000     0          
O        O      0.426993333333     0.033136666667     0.460900000000     0          
O        O      0.369063333333     0.039323333333     0.395716666667     0          
O        O      0.500000000000     0.000000000000     0.500000000000     0          
O        O      0.333333333333     0.000000000000     0.333333333333     0          
O        O      0.616776666667     0.007973333333     0.400120000000     0          
O        O      0.666366666667     0.297053333333     0.451516666667     0          
O        O      0.606193333333     0.267113333333     0.396180000000     0          
O        O      0.572290000000     0.305416666667     0.458873333333     0          
O        O      0.414150000000     0.299750000000     0.495883333333     0          
O        O      0.665250000000     0.216450000000     0.364233333333     0          
O        O      0.629066666667     0.067096666667     0.351633333333     0          
O        O      0.573006666667     0.199803333333     0.372433333333     0          
O        O      0.630936666667     0.205990000000     0.437616666667     0          
O        O      0.500000000000     0.166666666667     0.333333333333     0          
O        O      0.333333333333     0.166666666667     0.500000000000     0          
O        O      0.616776666667     0.158693333333     0.566786666667     0          
O        O      0.666366666667     0.202946666667     0.618183333333     0          
O        O      0.606193333333     0.232886666667     0.562846666667     0          
O        O      0.572290000000     0.194583333333     0.625540000000     0          
O        O      0.414150000000     0.200250000000     0.662550000000     0          
O        O      0.665250000000     0.283550000000     0.530900000000     0          
O        O      0.629066666667     0.099570000000     0.518300000000     0          
O        O      0.573006666667     0.300196666667     0.539100000000     0          
O        O      0.630936666667     0.294010000000     0.604283333333     0          
O        O      0.383223333333     0.325360000000     0.599880000000     0          
O        O      0.333633333333     0.036280000000     0.548483333333     0          
O        O      0.393806666667     0.066220000000     0.603820000000     0          
O        O      0.427710000000     0.027916666667     0.541126666667     0          
O        O      0.585850000000     0.033583333333     0.504116666667     0          
O        O      0.334750000000     0.116883333333     0.635766666667     0          
O        O      0.370933333333     0.266236666667     0.648366666667     0          
O        O      0.426993333333     0.133530000000     0.627566666667     0          
O        O      0.369063333333     0.127343333333     0.562383333333     0          
O        O      0.383223333333     0.174640000000     0.766546666667     0          
O        O      0.333633333333     0.130386666667     0.715150000000     0          
O        O      0.393806666667     0.100446666667     0.770486666667     0          
O        O      0.427710000000     0.138750000000     0.707793333333     0          
O        O      0.585850000000     0.133083333333     0.670783333333     0          
O        O      0.334750000000     0.049783333333     0.802433333333     0          
O        O      0.370933333333     0.233763333333     0.815033333333     0          
O        O      0.426993333333     0.033136666667     0.794233333333     0          
O        O      0.369063333333     0.039323333333     0.729050000000     0          
O        O      0.500000000000     0.000000000000     0.833333333333     0          
O        O      0.333333333333     0.000000000000     0.666666666667     0          
O        O      0.616776666667     0.007973333333     0.733453333333     0          
O        O      0.666366666667     0.297053333333     0.784850000000     0          
O        O      0.606193333333     0.267113333333     0.729513333333     0          
O        O      0.572290000000     0.305416666667     0.792206666667     0          
O        O      0.414150000000     0.299750000000     0.829216666667     0          
O        O      0.665250000000     0.216450000000     0.697566666667     0          
O        O      0.629066666667     0.067096666667     0.684966666667     0          
O        O      0.573006666667     0.199803333333     0.705766666667     0          
O        O      0.630936666667     0.205990000000     0.770950000000     0          
O        O      0.500000000000     0.166666666667     0.666666666667     0          
O        O      0.333333333333     0.166666666667     0.833333333333     0          
O        O      0.616776666667     0.158693333333     0.900120000000     0          
O        O      0.666366666667     0.202946666667     0.951516666667     0          
O        O      0.606193333333     0.232886666667     0.896180000000     0          
O        O      0.572290000000     0.194583333333     0.958873333333     0          
O        O      0.414150000000     0.200250000000     0.995883333333     0          
O        O      0.665250000000     0.283550000000     0.864233333333     0          
O        O      0.629066666667     0.099570000000     0.851633333333     0          
O        O      0.573006666667     0.300196666667     0.872433333333     0          
O        O      0.630936666667     0.294010000000     0.937616666667     0          
O        O      0.383223333333     0.325360000000     0.933213333333     0          
O        O      0.333633333333     0.036280000000     0.881816666667     0          
O        O      0.393806666667     0.066220000000     0.937153333333     0          
O        O      0.427710000000     0.027916666667     0.874460000000     0          
O        O      0.585850000000     0.033583333333     0.837450000000     0          
O        O      0.334750000000     0.116883333333     0.969100000000     0          
O        O      0.370933333333     0.266236666667     0.981700000000     0          
O        O      0.426993333333     0.133530000000     0.960900000000     0          
O        O      0.369063333333     0.127343333333     0.895716666667     0          
O        O      0.383223333333     0.507973333333     0.099880000000     0          
O        O      0.333633333333     0.463720000000     0.048483333333     0          
O        O      0.393806666667     0.433780000000     0.103820000000     0          
O        O      0.427710000000     0.472083333333     0.041126666667     0          
O        O      0.585850000000     0.466416666667     0.004116666667     0          
O        O      0.334750000000     0.383116666667     0.135766666667     0          
O        O      0.370933333333     0.567096666667     0.148366666667     0          
O        O      0.426993333333     0.366470000000     0.127566666667     0          
O        O      0.369063333333     0.372656666667     0.062383333333     0          
O        O      0.500000000000     0.333333333333     0.166666666667     0          
O        O      0.333333333333     0.333333333333     0.000000000000     0          
O        O      0.616776666667     0.341306666667     0.066786666667     0          
O        O      0.666366666667     0.630386666667     0.118183333333     0          
O        O      0.606193333333     0.600446666667     0.062846666667     0          
O        O      0.572290000000     0.638750000000     0.125540000000     0          
O        O      0.414150000000     0.633083333333     0.162550000000     0          
O        O      0.665250000000     0.549783333333     0.030900000000     0          
O        O      0.629066666667     0.400430000000     0.018300000000     0          
O        O      0.573006666667     0.533136666667     0.039100000000     0          
O        O      0.630936666667     0.539323333333     0.104283333333     0          
O        O      0.500000000000     0.500000000000     0.000000000000     0          
O        O      0.333333333333     0.500000000000     0.166666666667     0          
O        O      0.616776666667     0.492026666667     0.233453333333     0          
O        O      0.666366666667     0.536280000000     0.284850000000     0          
O        O      0.606193333333     0.566220000000     0.229513333333     0          
O        O      0.572290000000     0.527916666667     0.292206666667     0          
O        O      0.414150000000     0.533583333333     0.329216666667     0          
O        O      0.665250000000     0.616883333333     0.197566666667     0          
O        O      0.629066666667     0.432903333333     0.184966666667     0          
O        O      0.573006666667     0.633530000000     0.205766666667     0          
O        O      0.630936666667     0.627343333333     0.270950000000     0          
O        O      0.383223333333     0.658693333333     0.266546666667     0          
O        O      0.333633333333     0.369613333333     0.215150000000     0          
O        O      0.393806666667     0.399553333333     0.270486666667     0          
O        O      0.427710000000     0.361250000000     0.207793333333     0          
O        O      0.585850000000     0.366916666667     0.170783333333     0          
O        O      0.334750000000     0.450216666667     0.302433333333     0          
O        O      0.370933333333     0.599570000000     0.315033333333     0          
O        O      0.426993333333     0.466863333333     0.294233333333     0          
O        O      0.369063333333     0.460676666667     0.229050000000     0          
O        O      0.383223333333     0.507973333333     0.433213333333     0          
O        O      0.333633333333     0.463720000000     0.381816666667     0          
O        O      0.393806666667     0.433780000000     0.437153333333     0          
O        O      0.427710000000     0.472083333333     0.374460000000     0          
O        O      0.585850000000     0.466416666667     0.337450000000     0          
O        O      0.334750000000     0.383116666667     0.469100000000     0          
O        O      0.370933333333     0.567096666667     0.481700000000     0          
O        O      0.426993333333     0.366470000000     0.460900000000     0          
O        O      0.369063333333     0.372656666667     0.395716666667     0          
O        O      0.500000000000     0.333333333333     0.500000000000     0          
O        O      0.333333333333     0.333333333333     0.333333333333     0          
O        O      0.616776666667     0.341306666667     0.400120000000     0          
O        O      0.666366666667     0.630386666667     0.451516666667     0          
O        O      0.606193333333     0.600446666667     0.396180000000     0          
O        O      0.572290000000     0.638750000000     0.458873333333     0          
O        O      0.414150000000     0.633083333333     0.495883333333     0          
O        O      0.665250000000     0.549783333333     0.364233333333     0          
O        O      0.629066666667     0.400430000000     0.351633333333     0          
O        O      0.573006666667     0.533136666667     0.372433333333     0          
O        O      0.630936666667     0.539323333333     0.437616666667     0          
O        O      0.500000000000     0.500000000000     0.333333333333     0          
O        O      0.333333333333     0.500000000000     0.500000000000     0          
O        O      0.616776666667     0.492026666667     0.566786666667     0          
O        O      0.666366666667     0.536280000000     0.618183333333     0          
O        O      0.606193333333     0.566220000000     0.562846666667     0          
O        O      0.572290000000     0.527916666667     0.625540000000     0          
O        O      0.414150000000     0.533583333333     0.662550000000     0          
O        O      0.665250000000     0.616883333333     0.530900000000     0          
O        O      0.629066666667     0.432903333333     0.518300000000     0          
O        O      0.573006666667     0.633530000000     0.539100000000     0          
O        O      0.630936666667     0.627343333333     0.604283333333     0          
O        O      0.383223333333     0.658693333333     0.599880000000     0          
O        O      0.333633333333     0.369613333333     0.548483333333     0          
O        O      0.393806666667     0.399553333333     0.603820000000     0          
O        O      0.427710000000     0.361250000000     0.541126666667     0          
O        O      0.585850000000     0.366916666667     0.504116666667     0          
O        O      0.334750000000     0.450216666667     0.635766666667     0          
O        O      0.370933333333     0.599570000000     0.648366666667     0          
O        O      0.426993333333     0.466863333333     0.627566666667     0          
O        O      0.369063333333     0.460676666667     0.562383333333     0          
O        O      0.383223333333     0.507973333333     0.766546666667     0          
O        O      0.333633333333     0.463720000000     0.715150000000     0          
O        O      0.393806666667     0.433780000000     0.770486666667     0          
O        O      0.427710000000     0.472083333333     0.707793333333     0          
O        O      0.585850000000     0.466416666667     0.670783333333     0          
O        O      0.334750000000     0.383116666667     0.802433333333     0          
O        O      0.370933333333     0.567096666667     0.815033333333     0          
O        O      0.426993333333     0.366470000000     0.794233333333     0          
O        O      0.369063333333     0.372656666667     0.729050000000     0          
O        O      0.500000000000     0.333333333333     0.833333333333     0          
O        O      0.333333333333     0.333333333333     0.666666666667     0          
O        O      0.616776666667     0.341306666667     0.733453333333     0          
O        O      0.666366666667     0.630386666667     0.784850000000     0          
O        O      0.606193333333     0.600446666667     0.729513333333     0          
O        O      0.572290000000     0.638750000000     0.792206666667     0          
O        O      0.414150000000     0.633083333333     0.829216666667     0          
O        O      0.665250000000     0.549783333333     0.697566666667     0          
O        O      0.629066666667     0.400430000000     0.684966666667     0          
O        O      0.573006666667     0.533136666667     0.705766666667     0          
O        O      0.630936666667     0.539323333333     0.770950000000     0          
O        O      0.500000000000     0.500000000000     0.666666666667     0          
O        O      0.333333333333     0.500000000000     0.833333333333     0          
O        O      0.616776666667     0.492026666667     0.900120000000     0          
O        O      0.666366666667     0.536280000000     0.951516666667     0          
O        O      0.606193333333     0.566220000000     0.896180000000     0          
O        O      0.572290000000     0.527916666667     0.958873333333     0          
O        O      0.414150000000     0.533583333333     0.995883333333     0          
O        O      0.665250000000     0.616883333333     0.864233333333     0          
O        O      0.629066666667     0.432903333333     0.851633333333     0          
O        O      0.573006666667     0.633530000000     0.872433333333     0          
O        O      0.630936666667     0.627343333333     0.937616666667     0          
O        O      0.383223333333     0.658693333333     0.933213333333     0          
O        O      0.333633333333     0.369613333333     0.881816666667     0          
O        O      0.393806666667     0.399553333333     0.937153333333     0          
O        O      0.427710000000     0.361250000000     0.874460000000     0          
O        O      0.585850000000     0.366916666667     0.837450000000     0          
O        O      0.334750000000     0.450216666667     0.969100000000     0          
O        O      0.370933333333     0.599570000000     0.981700000000     0          
O        O      0.426993333333     0.466863333333     0.960900000000     0          
O        O      0.369063333333     0.460676666667     0.895716666667     0          
O        O      0.383223333333     0.841306666667     0.099880000000     0          
O        O      0.333633333333     0.797053333333     0.048483333333     0          
O        O      0.393806666667     0.767113333333     0.103820000000     0          
O        O      0.427710000000     0.805416666667     0.041126666667     0          
O        O      0.585850000000     0.799750000000     0.004116666667     0          
O        O      0.334750000000     0.716450000000     0.135766666667     0          
O        O      0.370933333333     0.900430000000     0.148366666667     0          
O        O      0.426993333333     0.699803333333     0.127566666667     0          
O        O      0.369063333333     0.705990000000     0.062383333333     0          
O        O      0.500000000000     0.666666666667     0.166666666667     0          
O        O      0.333333333333     0.666666666667     0.000000000000     0          
O        O      0.616776666667     0.674640000000     0.066786666667     0          
O        O      0.666366666667     0.963720000000     0.118183333333     0          
O        O      0.606193333333     0.933780000000     0.062846666667     0          
O        O      0.572290000000     0.972083333333     0.125540000000     0          
O        O      0.414150000000     0.966416666667     0.162550000000     0          
O        O      0.665250000000     0.883116666667     0.030900000000     0          
O        O      0.629066666667     0.733763333333     0.018300000000     0          
O        O      0.573006666667     0.866470000000     0.039100000000     0          
O        O      0.630936666667     0.872656666667     0.104283333333     0          
O        O      0.500000000000     0.833333333333     0.000000000000     0          
O        O      0.333333333333     0.833333333333     0.166666666667     0          
O        O      0.616776666667     0.825360000000     0.233453333333     0          
O        O      0.666366666667     0.869613333333     0.284850000000     0          
O        O      0.606193333333     0.899553333333     0.229513333333     0          
O        O      0.572290000000     0.861250000000     0.292206666667     0          
O        O      0.414150000000     0.866916666667     0.329216666667     0          
O        O      0.665250000000     0.950216666667     0.197566666667     0          
O        O      0.629066666667     0.766236666667     0.184966666667     0          
O        O      0.573006666667     0.966863333333     0.205766666667     0          
O        O      0.630936666667     0.960676666667     0.270950000000     0          
O        O      0.383223333333     0.992026666667     0.266546666667     0          
O        O      0.333633333333     0.702946666667     0.215150000000     0          
O        O      0.393806666667     0.732886666667     0.270486666667     0          
O        O      0.427710000000     0.694583333333     0.207793333333     0          
O        O      0.585850000000     0.700250000000     0.170783333333     0          
O        O      0.334750000000     0.783550000000     0.302433333333     0          
O        O      0.370933333333     0.932903333333     0.315033333333     0          
O        O      0.426993333333     0.800196666667     0.294233333333     0          
O        O      0.369063333333     0.794010000000     0.229050000000     0          
O        O      0.383223333333     0.841306666667     0.433213333333     0          
O        O      0.333633333333     0.797053333333     0.381816666667     0          
O        O      0.393806666667     0.767113333333     0.437153333333     0          
O        O      0.427710000000     0.805416666667     0.374460000000     0          
O        O      0.585850000000     0.799750000000     0.337450000000     0          
O        O      0.334750000000     0.716450000000     0.469100000000     0          
O        O      0.370933333333     0.900430000000     0.481700000000     0          
O        O      0.426993333333     0.699803333333     0.460900000000     0          
O        O      0.369063333333     0.705990000000     0.395716666667     0          
O        O      0.500000000000     0.666666666667     0.500000000000     0          
O        O      0.333333333333     0.666666666667     0.333333333333     0          
O        O      0.616776666667     0.674640000000     0.400120000000     0          
O        O      0.666366666667     0.963720000000     0.451516666667     0          
O        O      0.606193333333     0.933780000000     0.396180000000     0          
O        O      0.572290000000     0.972083333333     0.458873333333     0          
O        O      0.414150000000     0.966416666667     0.495883333333     0          
O        O      0.665250000000     0.883116666667     0.364233333333     0          
O        O      0.629066666667     0.733763333333     0.351633333333     0          
O        O      0.573006666667     0.866470000000     0.372433333333     0          
O        O      0.630936666667     0.872656666667     0.437616666667     0          
O        O      0.500000000000     0.833333333333     0.333333333333     0          
O        O      0.333333333333     0.833333333333     0.500000000000     0          
O        O      0.616776666667     0.825360000000     0.566786666667     0          
O        O      0.666366666667     0.869613333333     0.618183333333     0          
O        O      0.606193333333     0.899553333333     0.562846666667     0          
O        O      0.572290000000     0.861250000000     0.625540000000     0          
O        O      0.414150000000     0.866916666667     0.662550000000     0          
O        O      0.665250000000     0.950216666667     0.530900000000     0          
O        O      0.629066666667     0.766236666667     0.518300000000     0          
O        O      0.573006666667     0.966863333333     0.539100000000     0          
O        O      0.630936666667     0.960676666667     0.604283333333     0          
O        O      0.383223333333     0.992026666667     0.599880000000     0          
O        O      0.333633333333     0.702946666667     0.548483333333     0          
O        O      0.393806666667     0.732886666667     0.603820000000     0          
O        O      0.427710000000     0.694583333333     0.541126666667     0          
O        O      0.585850000000     0.700250000000     0.504116666667     0          
O        O      0.334750000000     0.783550000000     0.635766666667     0          
O        O      0.370933333333     0.932903333333     0.648366666667     0          
O        O      0.426993333333     0.800196666667     0.627566666667     0          
O        O      0.369063333333     0.794010000000     0.562383333333     0          
O        O      0.383223333333     0.841306666667     0.766546666667     0          
O        O      0.333633333333     0.797053333333     0.715150000000     0          
O        O      0.393806666667     0.767113333333     0.770486666667     0          
O        O      0.427710000000     0.805416666667     0.707793333333     0          
O        O      0.585850000000     0.799750000000     0.670783333333     0          
O        O      0.334750000000     0.716450000000     0.802433333333     0          
O        O      0.370933333333     0.900430000000     0.815033333333     0          
O        O      0.426993333333     0.699803333333     0.794233333333     0          
O        O      0.369063333333     0.705990000000     0.729050000000     0          
O        O      0.500000000000     0.666666666667     0.833333333333     0          
O        O      0.333333333333     0.666666666667     0.666666666667     0          
O        O      0.616776666667     0.674640000000     0.733453333333     0          
O        O      0.666366666667     0.963720000000     0.784850000000     0          
O        O      0.606193333333     0.933780000000     0.729513333333     0          
O        O      0.572290000000     0.972083333333     0.792206666667     0          
O        O      0.414150000000     0.966416666667     0.829216666667     0          
O        O      0.665250000000     0.883116666667     0.697566666667     0          
O        O      0.629066666667     0.733763333333     0.684966666667     0          
O        O      0.573006666667     0.866470000000     0.705766666667     0          
O        O      0.630936666667     0.872656666667     0.770950000000     0          
O        O      0.500000000000     0.833333333333     0.666666666667     0          
O        O      0.333333333333     0.833333333333     0.833333333333     0          
O        O      0.616776666667     0.825360000000     0.900120000000     0          
O        O      0.666366666667     0.869613333333     0.951516666667     0          
O        O      0.606193333333     0.899553333333     0.896180000000     0          
O        O      0.572290000000     0.861250000000     0.958873333333     0          
O        O      0.414150000000     0.866916666667     0.995883333333     0          
O        O      0.665250000000     0.950216666667     0.864233333333     0          
O        O      0.629066666667     0.766236666667     0.851633333333     0          
O        O      0.573006666667     0.966863333333     0.872433333333     0          
O        O      0.630936666667     0.960676666667     0.937616666667     0          
O        O      0.383223333333     0.992026666667     0.933213333333     0          
O        O      0.333633333333     0.702946666667     0.881816666667     0          
O        O      0.393806666667     0.732886666667     0.937153333333     0          
O        O      0.427710000000     0.694583333333     0.874460000000     0          
O        O      0.585850000000     0.700250000000     0.837450000000     0          
O        O      0.334750000000     0.783550000000     0.969100000000     0          
O        O      0.370933333333     0.932903333333     0.981700000000     0          
O        O      0.426993333333     0.800196666667     0.960900000000     0          
O        O      0.369063333333     0.794010000000     0.895716666667     0          
O        O      0.716556666667     0.174640000000     0.099880000000     0          
O        O      0.666966666667     0.130386666667     0.048483333333     0          
O        O      0.727140000000     0.100446666667     0.103820000000     0          
O        O      0.761043333333     0.138750000000     0.041126666667     0          
O        O      0.919183333333     0.133083333333     0.004116666667     0          
O        O      0.668083333333     0.049783333333     0.135766666667     0          
O        O      0.704266666667     0.233763333333     0.148366666667     0          
O        O      0.760326666667     0.033136666667     0.127566666667     0          
O        O      0.702396666667     0.039323333333     0.062383333333     0          
O        O      0.833333333333     0.000000000000     0.166666666667     0          
O        O      0.666666666667     0.000000000000     0.000000000000     0          
O        O      0.950110000000     0.007973333333     0.066786666667     0          
O        O      0.999700000000     0.297053333333     0.118183333333     0          
O        O      0.939526666667     0.267113333333     0.062846666667     0          
O        O      0.905623333333     0.305416666667     0.125540000000     0          
O        O      0.747483333333     0.299750000000     0.162550000000     0          
O        O      0.998583333333     0.216450000000     0.030900000000     0          
O        O      0.962400000000     0.067096666667     0.018300000000     0          
O        O      0.906340000000     0.199803333333     0.039100000000     0          
O        O      0.964270000000     0.205990000000     0.104283333333     0          
O        O      0.833333333333     0.166666666667     0.000000000000     0          
O        O      0.666666666667     0.166666666667     0.166666666667     0          
O        O      0.950110000000     0.158693333333     0.233453333333     0          
O        O      0.999700000000     0.202946666667     0.284850000000     0          
O        O      0.939526666667     0.232886666667     0.229513333333     0          
O        O      0.905623333333     0.194583333333     0.292206666667     0          
O        O      0.747483333333     0.200250000000     0.329216666667     0          
O        O      0.998583333333     0.283550000000     0.197566666667     0          
O        O      0.962400000000     0.099570000000     0.184966666667     0          
O        O      0.906340000000     0.300196666667     0.205766666667     0          
O        O      0.964270000000     0.294010000000     0.270950000000     0          
O        O      0.716556666667     0.325360000000     0.266546666667     0          
O        O      0.666966666667     0.036280000000     0.215150000000     0          
O        O      0.727140000000     0.066220000000     0.270486666667     0          
O        O      0.761043333333     0.027916666667     0.207793333333     0          
O        O      0.919183333333     0.033583333333     0.170783333333     0          
O        O      0.668083333333     0.116883333333     0.302433333333     0          
O        O      0.704266666667     0.266236666667     0.315033333333     0          
O        O      0.760326666667     0.133530000000     0.294233333333     0          
O        O      0.702396666667     0.127343333333     0.229050000000     0          
O        O      0.716556666667     0.174640000000     0.433213333333     0          
O        O      0.666966666667     0.130386666667     0.381816666667     0          
O        O      0.727140000000     0.100446666667     0.437153333333     0          
O        O      0.761043333333     0.138750000000     0.374460000000     0          
O        O      0.919183333333     0.133083333333     0.337450000000     0          
O        O      0.668083333333     0.049783333333     0.469100000000     0          
O        O      0.704266666667     0.233763333333     0.481700000000     0          
O        O      0.760326666667     0.033136666667     0.460900000000     0          
O        O      0.702396666667     0.039323333333     0.395716666667     0          
O        O      0.833333333333     0.000000000000     0.500000000000     0          
O        O      0.666666666667     0.000000000000     0.333333333333     0          
O        O      0.950110000000     0.007973333333     0.400120000000     0          
O        O      0.999700000000     0.297053333333     0.451516666667     0          
O        O      0.939526666667     0.267113333333     0.396180000000     0          
O        O      0.905623333333     0.305416666667     0.458873333333     0          
O        O      0.747483333333     0.299750000000     0.495883333333     0          
O        O      0.998583333333     0.216450000000     0.364233333333     0          
O        O      0.962400000000     0.067096666667     0.351633333333     0          
O        O      0.906340000000     0.199803333333     0.372433333333     0          
O        O      0.964270000000     0.205990000000     0.437616666667     0          
O        O      0.833333333333     0.166666666667     0.333333333333     0          
O        O      0.666666666667     0.166666666667     0.500000000000     0          
O        O      0.950110000000     0.158693333333     0.566786666667     0          
O        O      0.999700000000     0.202946666667     0.618183333333     0          
O        O      0.939526666667     0.232886666667     0.562846666667     0          
O        O      0.905623333333     0.194583333333     0.625540000000     0          
O        O      0.747483333333     0.200250000000     0.662550000000     0          
O        O      0.998583333333     0.283550000000     0.530900000000     0          
O        O      0.962400000000     0.099570000000     0.518300000000     0          
O        O      0.906340000000     0.300196666667     0.539100000000     0          
O        O      0.964270000000     0.294010000000     0.604283333333     0          
O        O      0.716556666667     0.325360000000     0.599880000000     0          
O        O      0.666966666667     0.036280000000     0.548483333333     0          
O        O      0.727140000000     0.066220000000     0.603820000000     0          
O        O      0.761043333333     0.027916666667     0.541126666667     0          
O        O      0.919183333333     0.033583333333     0.504116666667     0          
O        O      0.668083333333     0.116883333333     0.635766666667     0          
O        O      0.704266666667     0.266236666667     0.648366666667     0          
O        O      0.760326666667     0.133530000000     0.627566666667     0          
O        O      0.702396666667     0.127343333333     0.562383333333     0          
O        O      0.716556666667     0.174640000000     0.766546666667     0          
O        O      0.666966666667     0.130386666667     0.715150000000     0          
O        O      0.727140000000     0.100446666667     0.770486666667     0          
O        O      0.761043333333     0.138750000000     0.707793333333     0          
O        O      0.919183333333     0.133083333333     0.670783333333     0          
O        O      0.668083333333     0.049783333333     0.802433333333     0          
O        O      0.704266666667     0.233763333333     0.815033333333     0          
O        O      0.760326666667     0.033136666667     0.794233333333     0          
O        O      0.702396666667     0.039323333333     0.729050000000     0          
O        O      0.833333333333     0.000000000000     0.833333333333     0          
O        O      0.666666666667     0.000000000000     0.666666666667     0          
O        O      0.950110000000     0.007973333333     0.733453333333     0          
O        O      0.999700000000     0.297053333333     0.784850000000     0          
O        O      0.939526666667     0.267113333333     0.729513333333     0          
O        O      0.905623333333     0.305416666667     0.792206666667     0          
O        O      0.747483333333     0.299750000000     0.829216666667     0          
O        O      0.998583333333     0.216450000000     0.697566666667     0          
O        O      0.962400000000     0.067096666667     0.684966666667     0          
O        O      0.906340000000     0.199803333333     0.705766666667     0          
O        O      0.964270000000     0.205990000000     0.770950000000     0          
O        O      0.833333333333     0.166666666667     0.666666666667     0          
O        O      0.666666666667     0.166666666667     0.833333333333     0          
O        O      0.950110000000     0.158693333333     0.900120000000     0          
O        O      0.999700000000     0.202946666667     0.951516666667     0          
O        O      0.939526666667     0.232886666667     0.896180000000     0          
O        O      0.905623333333     0.194583333333     0.958873333333     0          
O        O      0.747483333333     0.200250000000     0.995883333333     0          
O        O      0.998583333333     0.283550000000     0.864233333333     0          
O        O      0.962400000000     0.099570000000     0.851633333333     0          
O        O      0.906340000000     0.300196666667     0.872433333333     0          
O        O      0.964270000000     0.294010000000     0.937616666667     0          
O        O      0.716556666667     0.325360000000     0.933213333333     0          
O        O      0.666966666667     0.036280000000     0.881816666667     0          
O        O      0.727140000000     0.066220000000     0.937153333333     0          
O        O      0.761043333333     0.027916666667     0.874460000000     0          
O        O      0.919183333333     0.033583333333     0.837450000000     0          
O        O      0.668083333333     0.116883333333     0.969100000000     0          
O        O      0.704266666667     0.266236666667     0.981700000000     0          
O        O      0.760326666667     0.133530000000     0.960900000000     0          
O        O      0.702396666667     0.127343333333     0.895716666667     0          
O        O      0.716556666667     0.507973333333     0.099880000000     0          
O        O      0.666966666667     0.463720000000     0.048483333333     0          
O        O      0.727140000000     0.433780000000     0.103820000000     0          
O        O      0.761043333333     0.472083333333     0.041126666667     0          
O        O      0.919183333333     0.466416666667     0.004116666667     0          
O        O      0.668083333333     0.383116666667     0.135766666667     0          
O        O      0.704266666667     0.567096666667     0.148366666667     0          
O        O      0.760326666667     0.366470000000     0.127566666667     0          
O        O      0.702396666667     0.372656666667     0.062383333333     0          
O        O      0.833333333333     0.333333333333     0.166666666667     0          
O        O      0.666666666667     0.333333333333     0.000000000000     0          
O        O      0.950110000000     0.341306666667     0.066786666667     0          
O        O      0.999700000000     0.630386666667     0.118183333333     0          
O        O      0.939526666667     0.600446666667     0.062846666667     0          
O        O      0.905623333333     0.638750000000     0.125540000000     0          
O        O      0.747483333333     0.633083333333     0.162550000000     0          
O        O      0.998583333333     0.549783333333     0.030900000000     0          
O        O      0.962400000000     0.400430000000     0.018300000000     0          
O        O      0.906340000000     0.533136666667     0.039100000000     0          
O        O      0.964270000000     0.539323333333     0.104283333333     0          
O        O      0.833333333333     0.500000000000     0.000000000000     0          
O        O      0.666666666667     0.500000000000     0.166666666667     0          
O        O      0.950110000000     0.492026666667     0.233453333333     0          
O        O      0.999700000000     0.536280000000     0.284850000000     0          
O        O      0.939526666667     0.566220000000     0.229513333333     0          
O        O      0.905623333333     0.527916666667     0.292206666667     0          
O        O      0.747483333333     0.533583333333     0.329216666667     0          
O        O      0.998583333333     0.616883333333     0.197566666667     0          
O        O      0.962400000000     0.432903333333     0.184966666667     0          
O        O      0.906340000000     0.633530000000     0.205766666667     0          
O        O      0.964270000000     0.627343333333     0.270950000000     0          
O        O      0.716556666667     0.658693333333     0.266546666667     0          
O        O      0.666966666667     0.369613333333     0.215150000000     0          
O        O      0.727140000000     0.399553333333     0.270486666667     0          
O        O      0.761043333333     0.361250000000     0.207793333333     0          
O        O      0.919183333333     0.366916666667     0.170783333333     0          
O        O      0.668083333333     0.450216666667     0.302433333333     0          
O        O      0.704266666667     0.599570000000     0.315033333333     0          
O        O      0.760326666667     0.466863333333     0.294233333333     0          
O        O      0.702396666667     0.460676666667     0.229050000000     0          
O        O      0.716556666667     0.507973333333     0.433213333333     0          
O        O      0.666966666667     0.463720000000     0.381816666667     0          
O        O      0.727140000000     0.433780000000     0.437153333333     0          
O        O      0.761043333333     0.472083333333     0.374460000000     0          
O        O      0.919183333333     0.466416666667     0.337450000000     0          
O        O      0.668083333333     0.383116666667     0.469100000000     0          
O        O      0.704266666667     0.567096666667     0.481700000000     0          
O        O      0.760326666667     0.366470000000     0.460900000000     0          
O        O      0.702396666667     0.372656666667     0.395716666667     0          
O        O      0.833333333333     0.333333333333     0.500000000000     0          
O        O      0.666666666667     0.333333333333     0.333333333333     0          
O        O      0.950110000000     0.341306666667     0.400120000000     0          
O        O      0.999700000000     0.630386666667     0.451516666667     0          
O        O      0.939526666667     0.600446666667     0.396180000000     0          
O        O      0.905623333333     0.638750000000     0.458873333333     0          
O        O      0.747483333333     0.633083333333     0.495883333333     0          
O        O      0.998583333333     0.549783333333     0.364233333333     0          
O        O      0.962400000000     0.400430000000     0.351633333333     0          
O        O      0.906340000000     0.533136666667     0.372433333333     0          
O        O      0.964270000000     0.539323333333     0.437616666667     0          
O        O      0.833333333333     0.500000000000     0.333333333333     0          
O        O      0.666666666667     0.500000000000     0.500000000000     0          
O        O      0.950110000000     0.492026666667     0.566786666667     0          
O        O      0.999700000000     0.536280000000     0.618183333333     0          
O        O      0.939526666667     0.566220000000     0.562846666667     0          
O        O      0.905623333333     0.527916666667     0.625540000000     0          
O        O      0.747483333333     0.533583333333     0.662550000000     0          
O        O      0.998583333333     0.616883333333     0.530900000000     0          
O        O      0.962400000000     0.432903333333     0.518300000000     0          
O        O      0.906340000000     0.633530000000     0.539100000000     0          
O        O      0.964270000000     0.627343333333     0.604283333333     0          
O        O      0.716556666667     0.658693333333     0.599880000000     0          
O        O      0.666966666667     0.369613333333     0.548483333333     0          
O        O      0.727140000000     0.399553333333     0.603820000000     0          
O        O      0.761043333333     0.361250000000     0.541126666667     0          
O        O      0.919183333333     0.366916666667     0.504116666667     0          
O        O      0.668083333333     0.450216666667     0.635766666667     0          
O        O      0.704266666667     0.599570000000     0.648366666667     0          
O        O      0.760326666667     0.466863333333     0.627566666667     0          
O        O      0.702396666667     0.460676666667     0.562383333333     0          
O        O      0.716556666667     0.507973333333     0.766546666667     0          
O        O      0.666966666667     0.463720000000     0.715150000000     0          
O        O      0.727140000000     0.433780000000     0.770486666667     0          
O        O      0.761043333333     0.472083333333     0.707793333333     0          
O        O      0.919183333333     0.466416666667     0.670783333333     0          
O        O      0.668083333333     0.383116666667     0.802433333333     0          
O        O      0.704266666667     0.567096666667     0.815033333333     0          
O        O      0.760326666667     0.366470000000     0.794233333333     0          
O        O      0.702396666667     0.372656666667     0.729050000000     0          
O        O      0.833333333333     0.333333333333     0.833333333333     0          
O        O      0.666666666667     0.333333333333     0.666666666667     0          
O        O      0.950110000000     0.341306666667     0.733453333333     0          
O        O      0.999700000000     0.630386666667     0.784850000000     0          
O        O      0.939526666667     0.600446666667     0.729513333333     0          
O        O      0.905623333333     0.638750000000     0.792206666667     0          
O        O      0.747483333333     0.633083333333     0.829216666667     0          
O        O      0.998583333333     0.549783333333     0.697566666667     0          
O        O      0.962400000000     0.400430000000     0.684966666667     0          
O        O      0.906340000000     0.533136666667     0.705766666667     0          
O        O      0.964270000000     0.539323333333     0.770950000000     0          
O        O      0.833333333333     0.500000000000     0.666666666667     0          
O        O      0.666666666667     0.500000000000     0.833333333333     0          
O        O      0.950110000000     0.492026666667     0.900120000000     0          
O        O      0.999700000000     0.536280000000     0.951516666667     0          
O        O      0.939526666667     0.566220000000     0.896180000000     0          
O        O      0.905623333333     0.527916666667     0.958873333333     0          
O        O      0.747483333333     0.533583333333     0.995883333333     0          
O        O      0.998583333333     0.616883333333     0.864233333333     0          
O        O      0.962400000000     0.432903333333     0.851633333333     0          
O        O      0.906340000000     0.633530000000     0.872433333333     0          
O        O      0.964270000000     0.627343333333     0.937616666667     0          
O        O      0.716556666667     0.658693333333     0.933213333333     0          
O        O      0.666966666667     0.369613333333     0.881816666667     0          
O        O      0.727140000000     0.399553333333     0.937153333333     0          
O        O      0.761043333333     0.361250000000     0.874460000000     0          
O        O      0.919183333333     0.366916666667     0.837450000000     0          
O        O      0.668083333333     0.450216666667     0.969100000000     0          
O        O      0.704266666667     0.599570000000     0.981700000000     0          
O        O      0.760326666667     0.466863333333     0.960900000000     0          
O        O      0.702396666667     0.460676666667     0.895716666667     0          
O        O      0.716556666667     0.841306666667     0.099880000000     0          
O        O      0.666966666667     0.797053333333     0.048483333333     0          
O        O      0.727140000000     0.767113333333     0.103820000000     0          
O        O      0.761043333333     0.805416666667     0.041126666667     0          
O        O      0.919183333333     0.799750000000     0.004116666667     0          
O        O      0.668083333333     0.716450000000     0.135766666667     0          
O        O      0.704266666667     0.900430000000     0.148366666667     0          
O        O      0.760326666667     0.699803333333     0.127566666667     0          
O        O      0.702396666667     0.705990000000     0.062383333333     0          
O        O      0.833333333333     0.666666666667     0.166666666667     0          
O        O      0.666666666667     0.666666666667     0.000000000000     0          
O        O      0.950110000000     0.674640000000     0.066786666667     0          
O        O      0.999700000000     0.963720000000     0.118183333333     0          
O        O      0.939526666667     0.933780000000     0.062846666667     0          
O        O      0.905623333333     0.972083333333     0.125540000000     0          
O        O      0.747483333333     0.966416666667     0.162550000000     0          
O        O      0.998583333333     0.883116666667     0.030900000000     0          
O        O      0.962400000000     0.733763333333     0.018300000000     0          
O        O      0.906340000000     0.866470000000     0.039100000000     0          
O        O      0.964270000000     0.872656666667     0.104283333333     0          
O        O      0.833333333333     0.833333333333     0.000000000000     0          
O        O      0.666666666667     0.833333333333     0.166666666667     0          
O        O      0.950110000000     0.825360000000     0.233453333333     0          
O        O      0.999700000000     0.869613333333     0.284850000000     0          
O        O      0.939526666667     0.899553333333     0.229513333333     0          
O        O      0.905623333333     0.861250000000     0.292206666667     0          
O        O      0.747483333333     0.866916666667     0.329216666667     0          
O        O      0.998583333333     0.950216666667     0.197566666667     0          
O        O      0.962400000000     0.766236666667     0.184966666667     0          
O        O      0.906340000000     0.966863333333     0.205766666667     0          
O        O      0.964270000000     0.960676666667     0.270950000000     0          
O        O      0.716556666667     0.992026666667     0.266546666667     0          
O        O      0.666966666667     0.702946666667     0.215150000000     0          
O        O      0.727140000000     0.732886666667     0.270486666667     0          
O        O      0.761043333333     0.694583333333     0.207793333333     0          
O        O      0.919183333333     0.700250000000     0.170783333333     0          
O        O      0.668083333333     0.783550000000     0.302433333333     0          
O        O      0.704266666667     0.932903333333     0.315033333333     0          
O        O      0.760326666667     0.800196666667     0.294233333333     0          
O        O      0.702396666667     0.794010000000     0.229050000000     0          
O        O      0.716556666667     0.841306666667     0.433213333333     0          
O        O      0.666966666667     0.797053333333     0.381816666667     0          
O        O      0.727140000000     0.767113333333     0.437153333333     0          
O        O      0.761043333333     0.805416666667     0.374460000000     0          
O        O      0.919183333333     0.799750000000     0.337450000000     0          
O        O      0.668083333333     0.716450000000     0.469100000000     0          
O        O      0.704266666667     0.900430000000     0.481700000000     0          
O        O      0.760326666667     0.699803333333     0.460900000000     0          
O        O      0.702396666667     0.705990000000     0.395716666667     0          
O        O      0.833333333333     0.666666666667     0.500000000000     0          
O        O      0.666666666667     0.666666666667     0.333333333333     0          
O        O      0.950110000000     0.674640000000     0.400120000000     0          
O        O      0.999700000000     0.963720000000     0.451516666667     0          
O        O      0.939526666667     0.933780000000     0.396180000000     0          
O        O      0.905623333333     0.972083333333     0.458873333333     0          
O        O      0.747483333333     0.966416666667     0.495883333333     0          
O        O      0.998583333333     0.883116666667     0.364233333333     0          
O        O      0.962400000000     0.733763333333     0.351633333333     0          
O        O      0.906340000000     0.866470000000     0.372433333333     0          
O        O      0.964270000000     0.872656666667     0.437616666667     0          
O        O      0.833333333333     0.833333333333     0.333333333333     0          
O        O      0.666666666667     0.833333333333     0.500000000000     0          
O        O      0.950110000000     0.825360000000     0.566786666667     0          
O        O      0.999700000000     0.869613333333     0.618183333333     0          
O        O      0.939526666667     0.899553333333     0.562846666667     0          
O        O      0.905623333333     0.861250000000     0.625540000000     0          
O        O      0.747483333333     0.866916666667     0.662550000000     0          
O        O      0.998583333333     0.950216666667     0.530900000000     0          
O        O      0.962400000000     0.766236666667     0.518300000000     0          
O        O      0.906340000000     0.966863333333     0.539100000000     0          
O        O      0.964270000000     0.960676666667     0.604283333333     0          
O        O      0.716556666667     0.992026666667     0.599880000000     0          
O        O      0.666966666667     0.702946666667     0.548483333333     0          
O        O      0.727140000000     0.732886666667     0.603820000000     0          
O        O      0.761043333333     0.694583333333     0.541126666667     0          
O        O      0.919183333333     0.700250000000     0.504116666667     0          
O        O      0.668083333333     0.783550000000     0.635766666667     0          
O        O      0.704266666667     0.932903333333     0.648366666667     0          
O        O      0.760326666667     0.800196666667     0.627566666667     0          
O        O      0.702396666667     0.794010000000     0.562383333333     0          
O        O      0.716556666667     0.841306666667     0.766546666667     0          
O        O      0.666966666667     0.797053333333     0.715150000000     0          
O        O      0.727140000000     0.767113333333     0.770486666667     0          
O        O      0.761043333333     0.805416666667     0.707793333333     0          
O        O      0.919183333333     0.799750000000     0.670783333333     0          
O        O      0.668083333333     0.716450000000     0.802433333333     0          
O        O      0.704266666667     0.900430000000     0.815033333333     0          
O        O      0.760326666667     0.699803333333     0.794233333333     0          
O        O      0.702396666667     0.705990000000     0.729050000000     0          
O        O      0.833333333333     0.666666666667     0.833333333333     0          
O        O      0.666666666667     0.666666666667     0.666666666667     0          
O        O      0.950110000000     0.674640000000     0.733453333333     0          
O        O      0.999700000000     0.963720000000     0.784850000000     0          
O        O      0.939526666667     0.933780000000     0.729513333333     0          
O        O      0.905623333333     0.972083333333     0.792206666667     0          
O        O      0.747483333333     0.966416666667     0.829216666667     0          
O        O      0.998583333333     0.883116666667     0.697566666667     0          
O        O      0.962400000000     0.733763333333     0.684966666667     0          
O        O      0.906340000000     0.866470000000     0.705766666667     0          
O        O      0.964270000000     0.872656666667     0.770950000000     0          
O        O      0.833333333333     0.833333333333     0.666666666667     0          
O        O      0.666666666667     0.833333333333     0.833333333333     0          
O        O      0.950110000000     0.825360000000     0.900120000000     0          
O        O      0.999700000000     0.869613333333     0.951516666667     0          
O        O      0.939526666667     0.899553333333     0.896180000000     0          
O        O      0.905623333333     0.861250000000     0.958873333333     0          
O        O      0.747483333333     0.866916666667     0.995883333333     0          
O        O      0.998583333333     0.950216666667     0.864233333333     0          
O        O      0.962400000000     0.766236666667     0.851633333333     0          
O        O      0.906340000000     0.966863333333     0.872433333333     0          
O        O      0.964270000000     0.960676666667     0.937616666667     0          
O        O      0.716556666667     0.992026666667     0.933213333333     0          
O        O      0.666966666667     0.702946666667     0.881816666667     0          
O        O      0.727140000000     0.732886666667     0.937153333333     0          
O        O      0.761043333333     0.694583333333     0.874460000000     0          
O        O      0.919183333333     0.700250000000     0.837450000000     0          
O        O      0.668083333333     0.783550000000     0.969100000000     0          
O        O      0.704266666667     0.932903333333     0.981700000000     0          
O        O      0.760326666667     0.800196666667     0.960900000000     0          
O        O      0.702396666667     0.794010000000     0.895716666667     0          


