data_zeolite

_audit_creation_method RASPA-1.0
_audit_creation_date 2021-6-7
_audit_author_name ''

_cell_length_a    34.504
_cell_length_b    34.504
_cell_length_c    34.504
_cell_angle_alpha 90
_cell_angle_beta  90
_cell_angle_gamma 90
_cell_volume      41077.9

_symmetry_cell_setting          cubic
_symmetry_space_group_name_Hall 'P 1'
_symmetry_space_group_name_H-M  'P 1'
_symmetry_Int_Tables_number     1

_symmetry_equiv_pos_as_xyz 'x,y,z'

loop_
_atom_site_label
_atom_site_type_symbol
_atom_site_fract_x
_atom_site_fract_y
_atom_site_fract_z
_atom_site_charge
O        O      0.089300000000     0.169900000000     0.031200000000     0          
O        O      0.150500000000     0.133700000000     0.060400000000     0          
T        Si     0.128000000000     0.174500000000     0.056900000000     0          
O        O      0.455100000000     0.464300000000     0.156200000000     0          
O        O      0.491300000000     0.025500000000     0.185400000000     0          
T        Si     0.450500000000     0.003000000000     0.181900000000     0          
O        O      0.160700000000     0.330100000000     0.281200000000     0          
O        O      0.099500000000     0.366300000000     0.310400000000     0          
T        Si     0.122000000000     0.325500000000     0.306900000000     0          
O        O      0.294900000000     0.035700000000     0.406200000000     0          
O        O      0.258700000000     0.474500000000     0.435400000000     0          
T        Si     0.299500000000     0.497000000000     0.431900000000     0          
O        O      0.089300000000     0.330100000000     0.218800000000     0          
O        O      0.150500000000     0.366300000000     0.189600000000     0          
T        Si     0.128000000000     0.325500000000     0.193100000000     0          
O        O      0.294900000000     0.464300000000     0.343800000000     0          
O        O      0.258700000000     0.025500000000     0.314600000000     0          
T        Si     0.299500000000     0.003000000000     0.318100000000     0          
O        O      0.160700000000     0.169900000000     0.468800000000     0          
O        O      0.099500000000     0.133700000000     0.439600000000     0          
T        Si     0.122000000000     0.174500000000     0.443100000000     0          
O        O      0.455100000000     0.035700000000     0.093800000000     0          
O        O      0.491300000000     0.474500000000     0.064600000000     0          
T        Si     0.450500000000     0.497000000000     0.068100000000     0          
O        O      0.031200000000     0.089300000000     0.169900000000     0          
O        O      0.060400000000     0.150500000000     0.133700000000     0          
T        Si     0.056900000000     0.128000000000     0.174500000000     0          
O        O      0.035700000000     0.406200000000     0.294900000000     0          
O        O      0.474500000000     0.435400000000     0.258700000000     0          
T        Si     0.497000000000     0.431900000000     0.299500000000     0          
O        O      0.218800000000     0.410700000000     0.419900000000     0          
O        O      0.189600000000     0.349500000000     0.383700000000     0          
T        Si     0.193100000000     0.372000000000     0.424500000000     0          
O        O      0.214300000000     0.093800000000     0.044900000000     0          
O        O      0.275500000000     0.064600000000     0.008700000000     0          
T        Si     0.253000000000     0.068100000000     0.049500000000     0          
O        O      0.031200000000     0.410700000000     0.080100000000     0          
O        O      0.060400000000     0.349500000000     0.116300000000     0          
T        Si     0.056900000000     0.372000000000     0.075500000000     0          
O        O      0.214300000000     0.406200000000     0.205100000000     0          
O        O      0.275500000000     0.435400000000     0.241300000000     0          
T        Si     0.253000000000     0.431900000000     0.200500000000     0          
O        O      0.218800000000     0.089300000000     0.330100000000     0          
O        O      0.189600000000     0.150500000000     0.366300000000     0          
T        Si     0.193100000000     0.128000000000     0.325500000000     0          
O        O      0.035700000000     0.093800000000     0.455100000000     0          
O        O      0.474500000000     0.064600000000     0.491300000000     0          
T        Si     0.497000000000     0.068100000000     0.450500000000     0          
O        O      0.169900000000     0.031200000000     0.089300000000     0          
O        O      0.133700000000     0.060400000000     0.150500000000     0          
T        Si     0.174500000000     0.056900000000     0.128000000000     0          
O        O      0.419900000000     0.218800000000     0.410700000000     0          
O        O      0.383700000000     0.189600000000     0.349500000000     0          
T        Si     0.424500000000     0.193100000000     0.372000000000     0          
O        O      0.406200000000     0.294900000000     0.035700000000     0          
O        O      0.435400000000     0.258700000000     0.474500000000     0          
T        Si     0.431900000000     0.299500000000     0.497000000000     0          
O        O      0.330100000000     0.281200000000     0.160700000000     0          
O        O      0.366300000000     0.310400000000     0.099500000000     0          
T        Si     0.325500000000     0.306900000000     0.122000000000     0          
O        O      0.093800000000     0.455100000000     0.035700000000     0          
O        O      0.064600000000     0.491300000000     0.474500000000     0          
T        Si     0.068100000000     0.450500000000     0.497000000000     0          
O        O      0.080100000000     0.468800000000     0.339300000000     0          
O        O      0.116300000000     0.439600000000     0.400500000000     0          
T        Si     0.075500000000     0.443100000000     0.378000000000     0          
O        O      0.406200000000     0.205100000000     0.214300000000     0          
O        O      0.435400000000     0.241300000000     0.275500000000     0          
T        Si     0.431900000000     0.200500000000     0.253000000000     0          
O        O      0.343800000000     0.294900000000     0.464300000000     0          
O        O      0.314600000000     0.258700000000     0.025500000000     0          
T        Si     0.318100000000     0.299500000000     0.003000000000     0          
O        O      0.410700000000     0.330100000000     0.468800000000     0          
O        O      0.349500000000     0.366300000000     0.439600000000     0          
T        Si     0.372000000000     0.325500000000     0.443100000000     0          
O        O      0.044900000000     0.035700000000     0.343800000000     0          
O        O      0.008700000000     0.474500000000     0.314600000000     0          
T        Si     0.049500000000     0.497000000000     0.318100000000     0          
O        O      0.339300000000     0.169900000000     0.218800000000     0          
O        O      0.400500000000     0.133700000000     0.189600000000     0          
T        Si     0.378000000000     0.174500000000     0.193100000000     0          
O        O      0.205100000000     0.464300000000     0.093800000000     0          
O        O      0.241300000000     0.025500000000     0.064600000000     0          
T        Si     0.200500000000     0.003000000000     0.068100000000     0          
O        O      0.410700000000     0.169900000000     0.281200000000     0          
O        O      0.349500000000     0.133700000000     0.310400000000     0          
T        Si     0.372000000000     0.174500000000     0.306900000000     0          
O        O      0.205100000000     0.035700000000     0.156200000000     0          
O        O      0.241300000000     0.474500000000     0.185400000000     0          
T        Si     0.200500000000     0.497000000000     0.181900000000     0          
O        O      0.339300000000     0.330100000000     0.031200000000     0          
O        O      0.400500000000     0.366300000000     0.060400000000     0          
T        Si     0.378000000000     0.325500000000     0.056900000000     0          
O        O      0.044900000000     0.464300000000     0.406200000000     0          
O        O      0.008700000000     0.025500000000     0.435400000000     0          
T        Si     0.049500000000     0.003000000000     0.431900000000     0          
O        O      0.468800000000     0.410700000000     0.330100000000     0          
O        O      0.439600000000     0.349500000000     0.366300000000     0          
T        Si     0.443100000000     0.372000000000     0.325500000000     0          
O        O      0.464300000000     0.093800000000     0.205100000000     0          
O        O      0.025500000000     0.064600000000     0.241300000000     0          
T        Si     0.003000000000     0.068100000000     0.200500000000     0          
O        O      0.281200000000     0.089300000000     0.080100000000     0          
O        O      0.310400000000     0.150500000000     0.116300000000     0          
T        Si     0.306900000000     0.128000000000     0.075500000000     0          
O        O      0.285700000000     0.406200000000     0.455100000000     0          
O        O      0.224500000000     0.435400000000     0.491300000000     0          
T        Si     0.247000000000     0.431900000000     0.450500000000     0          
O        O      0.468800000000     0.089300000000     0.419900000000     0          
O        O      0.439600000000     0.150500000000     0.383700000000     0          
T        Si     0.443100000000     0.128000000000     0.424500000000     0          
O        O      0.285700000000     0.093800000000     0.294900000000     0          
O        O      0.224500000000     0.064600000000     0.258700000000     0          
T        Si     0.247000000000     0.068100000000     0.299500000000     0          
O        O      0.281200000000     0.410700000000     0.169900000000     0          
O        O      0.310400000000     0.349500000000     0.133700000000     0          
T        Si     0.306900000000     0.372000000000     0.174500000000     0          
O        O      0.464300000000     0.406200000000     0.044900000000     0          
O        O      0.025500000000     0.435400000000     0.008700000000     0          
T        Si     0.003000000000     0.431900000000     0.049500000000     0          
O        O      0.330100000000     0.468800000000     0.410700000000     0          
O        O      0.366300000000     0.439600000000     0.349500000000     0          
T        Si     0.325500000000     0.443100000000     0.372000000000     0          
O        O      0.080100000000     0.281200000000     0.089300000000     0          
O        O      0.116300000000     0.310400000000     0.150500000000     0          
T        Si     0.075500000000     0.306900000000     0.128000000000     0          
O        O      0.093800000000     0.205100000000     0.464300000000     0          
O        O      0.064600000000     0.241300000000     0.025500000000     0          
T        Si     0.068100000000     0.200500000000     0.003000000000     0          
O        O      0.169900000000     0.218800000000     0.339300000000     0          
O        O      0.133700000000     0.189600000000     0.400500000000     0          
T        Si     0.174500000000     0.193100000000     0.378000000000     0          
O        O      0.406200000000     0.044900000000     0.464300000000     0          
O        O      0.435400000000     0.008700000000     0.025500000000     0          
T        Si     0.431900000000     0.049500000000     0.003000000000     0          
O        O      0.419900000000     0.031200000000     0.160700000000     0          
O        O      0.383700000000     0.060400000000     0.099500000000     0          
T        Si     0.424500000000     0.056900000000     0.122000000000     0          
O        O      0.093800000000     0.294900000000     0.285700000000     0          
O        O      0.064600000000     0.258700000000     0.224500000000     0          
T        Si     0.068100000000     0.299500000000     0.247000000000     0          
O        O      0.156200000000     0.205100000000     0.035700000000     0          
O        O      0.185400000000     0.241300000000     0.474500000000     0          
T        Si     0.181900000000     0.200500000000     0.497000000000     0          
O        O      0.339300000000     0.419900000000     0.281200000000     0          
O        O      0.400500000000     0.383700000000     0.310400000000     0          
T        Si     0.378000000000     0.424500000000     0.306900000000     0          
O        O      0.205100000000     0.214300000000     0.406200000000     0          
O        O      0.241300000000     0.275500000000     0.435400000000     0          
T        Si     0.200500000000     0.253000000000     0.431900000000     0          
O        O      0.410700000000     0.080100000000     0.031200000000     0          
O        O      0.349500000000     0.116300000000     0.060400000000     0          
T        Si     0.372000000000     0.075500000000     0.056900000000     0          
O        O      0.044900000000     0.285700000000     0.156200000000     0          
O        O      0.008700000000     0.224500000000     0.185400000000     0          
T        Si     0.049500000000     0.247000000000     0.181900000000     0          
O        O      0.339300000000     0.080100000000     0.468800000000     0          
O        O      0.400500000000     0.116300000000     0.439600000000     0          
T        Si     0.378000000000     0.075500000000     0.443100000000     0          
O        O      0.044900000000     0.214300000000     0.093800000000     0          
O        O      0.008700000000     0.275500000000     0.064600000000     0          
T        Si     0.049500000000     0.253000000000     0.068100000000     0          
O        O      0.410700000000     0.419900000000     0.218800000000     0          
O        O      0.349500000000     0.383700000000     0.189600000000     0          
T        Si     0.372000000000     0.424500000000     0.193100000000     0          
O        O      0.205100000000     0.285700000000     0.343800000000     0          
O        O      0.241300000000     0.224500000000     0.314600000000     0          
T        Si     0.200500000000     0.247000000000     0.318100000000     0          
O        O      0.281200000000     0.339300000000     0.419900000000     0          
O        O      0.310400000000     0.400500000000     0.383700000000     0          
T        Si     0.306900000000     0.378000000000     0.424500000000     0          
O        O      0.285700000000     0.156200000000     0.044900000000     0          
O        O      0.224500000000     0.185400000000     0.008700000000     0          
T        Si     0.247000000000     0.181900000000     0.049500000000     0          
O        O      0.468800000000     0.160700000000     0.169900000000     0          
O        O      0.439600000000     0.099500000000     0.133700000000     0          
T        Si     0.443100000000     0.122000000000     0.174500000000     0          
O        O      0.464300000000     0.343800000000     0.294900000000     0          
O        O      0.025500000000     0.314600000000     0.258700000000     0          
T        Si     0.003000000000     0.318100000000     0.299500000000     0          
O        O      0.281200000000     0.160700000000     0.330100000000     0          
O        O      0.310400000000     0.099500000000     0.366300000000     0          
T        Si     0.306900000000     0.122000000000     0.325500000000     0          
O        O      0.464300000000     0.156200000000     0.455100000000     0          
O        O      0.025500000000     0.185400000000     0.491300000000     0          
T        Si     0.003000000000     0.181900000000     0.450500000000     0          
O        O      0.468800000000     0.339300000000     0.080100000000     0          
O        O      0.439600000000     0.400500000000     0.116300000000     0          
T        Si     0.443100000000     0.378000000000     0.075500000000     0          
O        O      0.285700000000     0.343800000000     0.205100000000     0          
O        O      0.224500000000     0.314600000000     0.241300000000     0          
T        Si     0.247000000000     0.318100000000     0.200500000000     0          
O        O      0.419900000000     0.281200000000     0.339300000000     0          
O        O      0.383700000000     0.310400000000     0.400500000000     0          
T        Si     0.424500000000     0.306900000000     0.378000000000     0          
O        O      0.169900000000     0.468800000000     0.160700000000     0          
O        O      0.133700000000     0.439600000000     0.099500000000     0          
T        Si     0.174500000000     0.443100000000     0.122000000000     0          
O        O      0.156200000000     0.044900000000     0.285700000000     0          
O        O      0.185400000000     0.008700000000     0.224500000000     0          
T        Si     0.181900000000     0.049500000000     0.247000000000     0          
O        O      0.080100000000     0.031200000000     0.410700000000     0          
O        O      0.116300000000     0.060400000000     0.349500000000     0          
T        Si     0.075500000000     0.056900000000     0.372000000000     0          
O        O      0.343800000000     0.205100000000     0.285700000000     0          
O        O      0.314600000000     0.241300000000     0.224500000000     0          
T        Si     0.318100000000     0.200500000000     0.247000000000     0          
O        O      0.330100000000     0.218800000000     0.089300000000     0          
O        O      0.366300000000     0.189600000000     0.150500000000     0          
T        Si     0.325500000000     0.193100000000     0.128000000000     0          
O        O      0.156200000000     0.455100000000     0.464300000000     0          
O        O      0.185400000000     0.491300000000     0.025500000000     0          
T        Si     0.181900000000     0.450500000000     0.003000000000     0          
O        O      0.093800000000     0.044900000000     0.214300000000     0          
O        O      0.064600000000     0.008700000000     0.275500000000     0          
T        Si     0.068100000000     0.049500000000     0.253000000000     0          
O        O      0.160700000000     0.080100000000     0.218800000000     0          
O        O      0.099500000000     0.116300000000     0.189600000000     0          
T        Si     0.122000000000     0.075500000000     0.193100000000     0          
O        O      0.294900000000     0.285700000000     0.093800000000     0          
O        O      0.258700000000     0.224500000000     0.064600000000     0          
T        Si     0.299500000000     0.247000000000     0.068100000000     0          
O        O      0.089300000000     0.419900000000     0.468800000000     0          
O        O      0.150500000000     0.383700000000     0.439600000000     0          
T        Si     0.128000000000     0.424500000000     0.443100000000     0          
O        O      0.455100000000     0.214300000000     0.343800000000     0          
O        O      0.491300000000     0.275500000000     0.314600000000     0          
T        Si     0.450500000000     0.253000000000     0.318100000000     0          
O        O      0.160700000000     0.419900000000     0.031200000000     0          
O        O      0.099500000000     0.383700000000     0.060400000000     0          
T        Si     0.122000000000     0.424500000000     0.056900000000     0          
O        O      0.455100000000     0.285700000000     0.406200000000     0          
O        O      0.491300000000     0.224500000000     0.435400000000     0          
T        Si     0.450500000000     0.247000000000     0.431900000000     0          
O        O      0.089300000000     0.080100000000     0.281200000000     0          
O        O      0.150500000000     0.116300000000     0.310400000000     0          
T        Si     0.128000000000     0.075500000000     0.306900000000     0          
O        O      0.294900000000     0.214300000000     0.156200000000     0          
O        O      0.258700000000     0.275500000000     0.185400000000     0          
T        Si     0.299500000000     0.253000000000     0.181900000000     0          
O        O      0.218800000000     0.160700000000     0.080100000000     0          
O        O      0.189600000000     0.099500000000     0.116300000000     0          
T        Si     0.193100000000     0.122000000000     0.075500000000     0          
O        O      0.214300000000     0.343800000000     0.455100000000     0          
O        O      0.275500000000     0.314600000000     0.491300000000     0          
T        Si     0.253000000000     0.318100000000     0.450500000000     0          
O        O      0.031200000000     0.339300000000     0.330100000000     0          
O        O      0.060400000000     0.400500000000     0.366300000000     0          
T        Si     0.056900000000     0.378000000000     0.325500000000     0          
O        O      0.035700000000     0.156200000000     0.205100000000     0          
O        O      0.474500000000     0.185400000000     0.241300000000     0          
T        Si     0.497000000000     0.181900000000     0.200500000000     0          
O        O      0.218800000000     0.339300000000     0.169900000000     0          
O        O      0.189600000000     0.400500000000     0.133700000000     0          
T        Si     0.193100000000     0.378000000000     0.174500000000     0          
O        O      0.035700000000     0.343800000000     0.044900000000     0          
O        O      0.474500000000     0.314600000000     0.008700000000     0          
T        Si     0.497000000000     0.318100000000     0.049500000000     0          
O        O      0.031200000000     0.160700000000     0.419900000000     0          
O        O      0.060400000000     0.099500000000     0.383700000000     0          
T        Si     0.056900000000     0.122000000000     0.424500000000     0          
O        O      0.214300000000     0.156200000000     0.294900000000     0          
O        O      0.275500000000     0.185400000000     0.258700000000     0          
T        Si     0.253000000000     0.181900000000     0.299500000000     0          
O        O      0.080100000000     0.218800000000     0.160700000000     0          
O        O      0.116300000000     0.189600000000     0.099500000000     0          
T        Si     0.075500000000     0.193100000000     0.122000000000     0          
O        O      0.330100000000     0.031200000000     0.339300000000     0          
O        O      0.366300000000     0.060400000000     0.400500000000     0          
T        Si     0.325500000000     0.056900000000     0.378000000000     0          
O        O      0.343800000000     0.455100000000     0.214300000000     0          
O        O      0.314600000000     0.491300000000     0.275500000000     0          
T        Si     0.318100000000     0.450500000000     0.253000000000     0          
O        O      0.419900000000     0.468800000000     0.089300000000     0          
O        O      0.383700000000     0.439600000000     0.150500000000     0          
T        Si     0.424500000000     0.443100000000     0.128000000000     0          
O        O      0.156200000000     0.294900000000     0.214300000000     0          
O        O      0.185400000000     0.258700000000     0.275500000000     0          
T        Si     0.181900000000     0.299500000000     0.253000000000     0          
O        O      0.169900000000     0.281200000000     0.410700000000     0          
O        O      0.133700000000     0.310400000000     0.349500000000     0          
T        Si     0.174500000000     0.306900000000     0.372000000000     0          
O        O      0.343800000000     0.044900000000     0.035700000000     0          
O        O      0.314600000000     0.008700000000     0.474500000000     0          
T        Si     0.318100000000     0.049500000000     0.497000000000     0          
O        O      0.406200000000     0.455100000000     0.285700000000     0          
O        O      0.435400000000     0.491300000000     0.224500000000     0          
T        Si     0.431900000000     0.450500000000     0.247000000000     0          
O        O      0.089300000000     0.169900000000     0.531200000000     0          
O        O      0.150500000000     0.133700000000     0.560400000000     0          
T        Si     0.128000000000     0.174500000000     0.556900000000     0          
O        O      0.455100000000     0.464300000000     0.656200000000     0          
O        O      0.491300000000     0.025500000000     0.685400000000     0          
T        Si     0.450500000000     0.003000000000     0.681900000000     0          
O        O      0.160700000000     0.330100000000     0.781200000000     0          
O        O      0.099500000000     0.366300000000     0.810400000000     0          
T        Si     0.122000000000     0.325500000000     0.806900000000     0          
O        O      0.294900000000     0.035700000000     0.906200000000     0          
O        O      0.258700000000     0.474500000000     0.935400000000     0          
T        Si     0.299500000000     0.497000000000     0.931900000000     0          
O        O      0.089300000000     0.330100000000     0.718800000000     0          
O        O      0.150500000000     0.366300000000     0.689600000000     0          
T        Si     0.128000000000     0.325500000000     0.693100000000     0          
O        O      0.294900000000     0.464300000000     0.843800000000     0          
O        O      0.258700000000     0.025500000000     0.814600000000     0          
T        Si     0.299500000000     0.003000000000     0.818100000000     0          
O        O      0.160700000000     0.169900000000     0.968800000000     0          
O        O      0.099500000000     0.133700000000     0.939600000000     0          
T        Si     0.122000000000     0.174500000000     0.943100000000     0          
O        O      0.455100000000     0.035700000000     0.593800000000     0          
O        O      0.491300000000     0.474500000000     0.564600000000     0          
T        Si     0.450500000000     0.497000000000     0.568100000000     0          
O        O      0.031200000000     0.089300000000     0.669900000000     0          
O        O      0.060400000000     0.150500000000     0.633700000000     0          
T        Si     0.056900000000     0.128000000000     0.674500000000     0          
O        O      0.035700000000     0.406200000000     0.794900000000     0          
O        O      0.474500000000     0.435400000000     0.758700000000     0          
T        Si     0.497000000000     0.431900000000     0.799500000000     0          
O        O      0.218800000000     0.410700000000     0.919900000000     0          
O        O      0.189600000000     0.349500000000     0.883700000000     0          
T        Si     0.193100000000     0.372000000000     0.924500000000     0          
O        O      0.214300000000     0.093800000000     0.544900000000     0          
O        O      0.275500000000     0.064600000000     0.508700000000     0          
T        Si     0.253000000000     0.068100000000     0.549500000000     0          
O        O      0.031200000000     0.410700000000     0.580100000000     0          
O        O      0.060400000000     0.349500000000     0.616300000000     0          
T        Si     0.056900000000     0.372000000000     0.575500000000     0          
O        O      0.214300000000     0.406200000000     0.705100000000     0          
O        O      0.275500000000     0.435400000000     0.741300000000     0          
T        Si     0.253000000000     0.431900000000     0.700500000000     0          
O        O      0.218800000000     0.089300000000     0.830100000000     0          
O        O      0.189600000000     0.150500000000     0.866300000000     0          
T        Si     0.193100000000     0.128000000000     0.825500000000     0          
O        O      0.035700000000     0.093800000000     0.955100000000     0          
O        O      0.474500000000     0.064600000000     0.991300000000     0          
T        Si     0.497000000000     0.068100000000     0.950500000000     0          
O        O      0.169900000000     0.031200000000     0.589300000000     0          
O        O      0.133700000000     0.060400000000     0.650500000000     0          
T        Si     0.174500000000     0.056900000000     0.628000000000     0          
O        O      0.419900000000     0.218800000000     0.910700000000     0          
O        O      0.383700000000     0.189600000000     0.849500000000     0          
T        Si     0.424500000000     0.193100000000     0.872000000000     0          
O        O      0.406200000000     0.294900000000     0.535700000000     0          
O        O      0.435400000000     0.258700000000     0.974500000000     0          
T        Si     0.431900000000     0.299500000000     0.997000000000     0          
O        O      0.330100000000     0.281200000000     0.660700000000     0          
O        O      0.366300000000     0.310400000000     0.599500000000     0          
T        Si     0.325500000000     0.306900000000     0.622000000000     0          
O        O      0.093800000000     0.455100000000     0.535700000000     0          
O        O      0.064600000000     0.491300000000     0.974500000000     0          
T        Si     0.068100000000     0.450500000000     0.997000000000     0          
O        O      0.080100000000     0.468800000000     0.839300000000     0          
O        O      0.116300000000     0.439600000000     0.900500000000     0          
T        Si     0.075500000000     0.443100000000     0.878000000000     0          
O        O      0.406200000000     0.205100000000     0.714300000000     0          
O        O      0.435400000000     0.241300000000     0.775500000000     0          
T        Si     0.431900000000     0.200500000000     0.753000000000     0          
O        O      0.343800000000     0.294900000000     0.964300000000     0          
O        O      0.314600000000     0.258700000000     0.525500000000     0          
T        Si     0.318100000000     0.299500000000     0.503000000000     0          
O        O      0.410700000000     0.330100000000     0.968800000000     0          
O        O      0.349500000000     0.366300000000     0.939600000000     0          
T        Si     0.372000000000     0.325500000000     0.943100000000     0          
O        O      0.044900000000     0.035700000000     0.843800000000     0          
O        O      0.008700000000     0.474500000000     0.814600000000     0          
T        Si     0.049500000000     0.497000000000     0.818100000000     0          
O        O      0.339300000000     0.169900000000     0.718800000000     0          
O        O      0.400500000000     0.133700000000     0.689600000000     0          
T        Si     0.378000000000     0.174500000000     0.693100000000     0          
O        O      0.205100000000     0.464300000000     0.593800000000     0          
O        O      0.241300000000     0.025500000000     0.564600000000     0          
T        Si     0.200500000000     0.003000000000     0.568100000000     0          
O        O      0.410700000000     0.169900000000     0.781200000000     0          
O        O      0.349500000000     0.133700000000     0.810400000000     0          
T        Si     0.372000000000     0.174500000000     0.806900000000     0          
O        O      0.205100000000     0.035700000000     0.656200000000     0          
O        O      0.241300000000     0.474500000000     0.685400000000     0          
T        Si     0.200500000000     0.497000000000     0.681900000000     0          
O        O      0.339300000000     0.330100000000     0.531200000000     0          
O        O      0.400500000000     0.366300000000     0.560400000000     0          
T        Si     0.378000000000     0.325500000000     0.556900000000     0          
O        O      0.044900000000     0.464300000000     0.906200000000     0          
O        O      0.008700000000     0.025500000000     0.935400000000     0          
T        Si     0.049500000000     0.003000000000     0.931900000000     0          
O        O      0.468800000000     0.410700000000     0.830100000000     0          
O        O      0.439600000000     0.349500000000     0.866300000000     0          
T        Si     0.443100000000     0.372000000000     0.825500000000     0          
O        O      0.464300000000     0.093800000000     0.705100000000     0          
O        O      0.025500000000     0.064600000000     0.741300000000     0          
T        Si     0.003000000000     0.068100000000     0.700500000000     0          
O        O      0.281200000000     0.089300000000     0.580100000000     0          
O        O      0.310400000000     0.150500000000     0.616300000000     0          
T        Si     0.306900000000     0.128000000000     0.575500000000     0          
O        O      0.285700000000     0.406200000000     0.955100000000     0          
O        O      0.224500000000     0.435400000000     0.991300000000     0          
T        Si     0.247000000000     0.431900000000     0.950500000000     0          
O        O      0.468800000000     0.089300000000     0.919900000000     0          
O        O      0.439600000000     0.150500000000     0.883700000000     0          
T        Si     0.443100000000     0.128000000000     0.924500000000     0          
O        O      0.285700000000     0.093800000000     0.794900000000     0          
O        O      0.224500000000     0.064600000000     0.758700000000     0          
T        Si     0.247000000000     0.068100000000     0.799500000000     0          
O        O      0.281200000000     0.410700000000     0.669900000000     0          
O        O      0.310400000000     0.349500000000     0.633700000000     0          
T        Si     0.306900000000     0.372000000000     0.674500000000     0          
O        O      0.464300000000     0.406200000000     0.544900000000     0          
O        O      0.025500000000     0.435400000000     0.508700000000     0          
T        Si     0.003000000000     0.431900000000     0.549500000000     0          
O        O      0.330100000000     0.468800000000     0.910700000000     0          
O        O      0.366300000000     0.439600000000     0.849500000000     0          
T        Si     0.325500000000     0.443100000000     0.872000000000     0          
O        O      0.080100000000     0.281200000000     0.589300000000     0          
O        O      0.116300000000     0.310400000000     0.650500000000     0          
T        Si     0.075500000000     0.306900000000     0.628000000000     0          
O        O      0.093800000000     0.205100000000     0.964300000000     0          
O        O      0.064600000000     0.241300000000     0.525500000000     0          
T        Si     0.068100000000     0.200500000000     0.503000000000     0          
O        O      0.169900000000     0.218800000000     0.839300000000     0          
O        O      0.133700000000     0.189600000000     0.900500000000     0          
T        Si     0.174500000000     0.193100000000     0.878000000000     0          
O        O      0.406200000000     0.044900000000     0.964300000000     0          
O        O      0.435400000000     0.008700000000     0.525500000000     0          
T        Si     0.431900000000     0.049500000000     0.503000000000     0          
O        O      0.419900000000     0.031200000000     0.660700000000     0          
O        O      0.383700000000     0.060400000000     0.599500000000     0          
T        Si     0.424500000000     0.056900000000     0.622000000000     0          
O        O      0.093800000000     0.294900000000     0.785700000000     0          
O        O      0.064600000000     0.258700000000     0.724500000000     0          
T        Si     0.068100000000     0.299500000000     0.747000000000     0          
O        O      0.156200000000     0.205100000000     0.535700000000     0          
O        O      0.185400000000     0.241300000000     0.974500000000     0          
T        Si     0.181900000000     0.200500000000     0.997000000000     0          
O        O      0.339300000000     0.419900000000     0.781200000000     0          
O        O      0.400500000000     0.383700000000     0.810400000000     0          
T        Si     0.378000000000     0.424500000000     0.806900000000     0          
O        O      0.205100000000     0.214300000000     0.906200000000     0          
O        O      0.241300000000     0.275500000000     0.935400000000     0          
T        Si     0.200500000000     0.253000000000     0.931900000000     0          
O        O      0.410700000000     0.080100000000     0.531200000000     0          
O        O      0.349500000000     0.116300000000     0.560400000000     0          
T        Si     0.372000000000     0.075500000000     0.556900000000     0          
O        O      0.044900000000     0.285700000000     0.656200000000     0          
O        O      0.008700000000     0.224500000000     0.685400000000     0          
T        Si     0.049500000000     0.247000000000     0.681900000000     0          
O        O      0.339300000000     0.080100000000     0.968800000000     0          
O        O      0.400500000000     0.116300000000     0.939600000000     0          
T        Si     0.378000000000     0.075500000000     0.943100000000     0          
O        O      0.044900000000     0.214300000000     0.593800000000     0          
O        O      0.008700000000     0.275500000000     0.564600000000     0          
T        Si     0.049500000000     0.253000000000     0.568100000000     0          
O        O      0.410700000000     0.419900000000     0.718800000000     0          
O        O      0.349500000000     0.383700000000     0.689600000000     0          
T        Si     0.372000000000     0.424500000000     0.693100000000     0          
O        O      0.205100000000     0.285700000000     0.843800000000     0          
O        O      0.241300000000     0.224500000000     0.814600000000     0          
T        Si     0.200500000000     0.247000000000     0.818100000000     0          
O        O      0.281200000000     0.339300000000     0.919900000000     0          
O        O      0.310400000000     0.400500000000     0.883700000000     0          
T        Si     0.306900000000     0.378000000000     0.924500000000     0          
O        O      0.285700000000     0.156200000000     0.544900000000     0          
O        O      0.224500000000     0.185400000000     0.508700000000     0          
T        Si     0.247000000000     0.181900000000     0.549500000000     0          
O        O      0.468800000000     0.160700000000     0.669900000000     0          
O        O      0.439600000000     0.099500000000     0.633700000000     0          
T        Si     0.443100000000     0.122000000000     0.674500000000     0          
O        O      0.464300000000     0.343800000000     0.794900000000     0          
O        O      0.025500000000     0.314600000000     0.758700000000     0          
T        Si     0.003000000000     0.318100000000     0.799500000000     0          
O        O      0.281200000000     0.160700000000     0.830100000000     0          
O        O      0.310400000000     0.099500000000     0.866300000000     0          
T        Si     0.306900000000     0.122000000000     0.825500000000     0          
O        O      0.464300000000     0.156200000000     0.955100000000     0          
O        O      0.025500000000     0.185400000000     0.991300000000     0          
T        Si     0.003000000000     0.181900000000     0.950500000000     0          
O        O      0.468800000000     0.339300000000     0.580100000000     0          
O        O      0.439600000000     0.400500000000     0.616300000000     0          
T        Si     0.443100000000     0.378000000000     0.575500000000     0          
O        O      0.285700000000     0.343800000000     0.705100000000     0          
O        O      0.224500000000     0.314600000000     0.741300000000     0          
T        Si     0.247000000000     0.318100000000     0.700500000000     0          
O        O      0.419900000000     0.281200000000     0.839300000000     0          
O        O      0.383700000000     0.310400000000     0.900500000000     0          
T        Si     0.424500000000     0.306900000000     0.878000000000     0          
O        O      0.169900000000     0.468800000000     0.660700000000     0          
O        O      0.133700000000     0.439600000000     0.599500000000     0          
T        Si     0.174500000000     0.443100000000     0.622000000000     0          
O        O      0.156200000000     0.044900000000     0.785700000000     0          
O        O      0.185400000000     0.008700000000     0.724500000000     0          
T        Si     0.181900000000     0.049500000000     0.747000000000     0          
O        O      0.080100000000     0.031200000000     0.910700000000     0          
O        O      0.116300000000     0.060400000000     0.849500000000     0          
T        Si     0.075500000000     0.056900000000     0.872000000000     0          
O        O      0.343800000000     0.205100000000     0.785700000000     0          
O        O      0.314600000000     0.241300000000     0.724500000000     0          
T        Si     0.318100000000     0.200500000000     0.747000000000     0          
O        O      0.330100000000     0.218800000000     0.589300000000     0          
O        O      0.366300000000     0.189600000000     0.650500000000     0          
T        Si     0.325500000000     0.193100000000     0.628000000000     0          
O        O      0.156200000000     0.455100000000     0.964300000000     0          
O        O      0.185400000000     0.491300000000     0.525500000000     0          
T        Si     0.181900000000     0.450500000000     0.503000000000     0          
O        O      0.093800000000     0.044900000000     0.714300000000     0          
O        O      0.064600000000     0.008700000000     0.775500000000     0          
T        Si     0.068100000000     0.049500000000     0.753000000000     0          
O        O      0.160700000000     0.080100000000     0.718800000000     0          
O        O      0.099500000000     0.116300000000     0.689600000000     0          
T        Si     0.122000000000     0.075500000000     0.693100000000     0          
O        O      0.294900000000     0.285700000000     0.593800000000     0          
O        O      0.258700000000     0.224500000000     0.564600000000     0          
T        Si     0.299500000000     0.247000000000     0.568100000000     0          
O        O      0.089300000000     0.419900000000     0.968800000000     0          
O        O      0.150500000000     0.383700000000     0.939600000000     0          
T        Si     0.128000000000     0.424500000000     0.943100000000     0          
O        O      0.455100000000     0.214300000000     0.843800000000     0          
O        O      0.491300000000     0.275500000000     0.814600000000     0          
T        Si     0.450500000000     0.253000000000     0.818100000000     0          
O        O      0.160700000000     0.419900000000     0.531200000000     0          
O        O      0.099500000000     0.383700000000     0.560400000000     0          
T        Si     0.122000000000     0.424500000000     0.556900000000     0          
O        O      0.455100000000     0.285700000000     0.906200000000     0          
O        O      0.491300000000     0.224500000000     0.935400000000     0          
T        Si     0.450500000000     0.247000000000     0.931900000000     0          
O        O      0.089300000000     0.080100000000     0.781200000000     0          
O        O      0.150500000000     0.116300000000     0.810400000000     0          
T        Si     0.128000000000     0.075500000000     0.806900000000     0          
O        O      0.294900000000     0.214300000000     0.656200000000     0          
O        O      0.258700000000     0.275500000000     0.685400000000     0          
T        Si     0.299500000000     0.253000000000     0.681900000000     0          
O        O      0.218800000000     0.160700000000     0.580100000000     0          
O        O      0.189600000000     0.099500000000     0.616300000000     0          
T        Si     0.193100000000     0.122000000000     0.575500000000     0          
O        O      0.214300000000     0.343800000000     0.955100000000     0          
O        O      0.275500000000     0.314600000000     0.991300000000     0          
T        Si     0.253000000000     0.318100000000     0.950500000000     0          
O        O      0.031200000000     0.339300000000     0.830100000000     0          
O        O      0.060400000000     0.400500000000     0.866300000000     0          
T        Si     0.056900000000     0.378000000000     0.825500000000     0          
O        O      0.035700000000     0.156200000000     0.705100000000     0          
O        O      0.474500000000     0.185400000000     0.741300000000     0          
T        Si     0.497000000000     0.181900000000     0.700500000000     0          
O        O      0.218800000000     0.339300000000     0.669900000000     0          
O        O      0.189600000000     0.400500000000     0.633700000000     0          
T        Si     0.193100000000     0.378000000000     0.674500000000     0          
O        O      0.035700000000     0.343800000000     0.544900000000     0          
O        O      0.474500000000     0.314600000000     0.508700000000     0          
T        Si     0.497000000000     0.318100000000     0.549500000000     0          
O        O      0.031200000000     0.160700000000     0.919900000000     0          
O        O      0.060400000000     0.099500000000     0.883700000000     0          
T        Si     0.056900000000     0.122000000000     0.924500000000     0          
O        O      0.214300000000     0.156200000000     0.794900000000     0          
O        O      0.275500000000     0.185400000000     0.758700000000     0          
T        Si     0.253000000000     0.181900000000     0.799500000000     0          
O        O      0.080100000000     0.218800000000     0.660700000000     0          
O        O      0.116300000000     0.189600000000     0.599500000000     0          
T        Si     0.075500000000     0.193100000000     0.622000000000     0          
O        O      0.330100000000     0.031200000000     0.839300000000     0          
O        O      0.366300000000     0.060400000000     0.900500000000     0          
T        Si     0.325500000000     0.056900000000     0.878000000000     0          
O        O      0.343800000000     0.455100000000     0.714300000000     0          
O        O      0.314600000000     0.491300000000     0.775500000000     0          
T        Si     0.318100000000     0.450500000000     0.753000000000     0          
O        O      0.419900000000     0.468800000000     0.589300000000     0          
O        O      0.383700000000     0.439600000000     0.650500000000     0          
T        Si     0.424500000000     0.443100000000     0.628000000000     0          
O        O      0.156200000000     0.294900000000     0.714300000000     0          
O        O      0.185400000000     0.258700000000     0.775500000000     0          
T        Si     0.181900000000     0.299500000000     0.753000000000     0          
O        O      0.169900000000     0.281200000000     0.910700000000     0          
O        O      0.133700000000     0.310400000000     0.849500000000     0          
T        Si     0.174500000000     0.306900000000     0.872000000000     0          
O        O      0.343800000000     0.044900000000     0.535700000000     0          
O        O      0.314600000000     0.008700000000     0.974500000000     0          
T        Si     0.318100000000     0.049500000000     0.997000000000     0          
O        O      0.406200000000     0.455100000000     0.785700000000     0          
O        O      0.435400000000     0.491300000000     0.724500000000     0          
T        Si     0.431900000000     0.450500000000     0.747000000000     0          
O        O      0.089300000000     0.669900000000     0.031200000000     0          
O        O      0.150500000000     0.633700000000     0.060400000000     0          
T        Si     0.128000000000     0.674500000000     0.056900000000     0          
O        O      0.455100000000     0.964300000000     0.156200000000     0          
O        O      0.491300000000     0.525500000000     0.185400000000     0          
T        Si     0.450500000000     0.503000000000     0.181900000000     0          
O        O      0.160700000000     0.830100000000     0.281200000000     0          
O        O      0.099500000000     0.866300000000     0.310400000000     0          
T        Si     0.122000000000     0.825500000000     0.306900000000     0          
O        O      0.294900000000     0.535700000000     0.406200000000     0          
O        O      0.258700000000     0.974500000000     0.435400000000     0          
T        Si     0.299500000000     0.997000000000     0.431900000000     0          
O        O      0.089300000000     0.830100000000     0.218800000000     0          
O        O      0.150500000000     0.866300000000     0.189600000000     0          
T        Si     0.128000000000     0.825500000000     0.193100000000     0          
O        O      0.294900000000     0.964300000000     0.343800000000     0          
O        O      0.258700000000     0.525500000000     0.314600000000     0          
T        Si     0.299500000000     0.503000000000     0.318100000000     0          
O        O      0.160700000000     0.669900000000     0.468800000000     0          
O        O      0.099500000000     0.633700000000     0.439600000000     0          
T        Si     0.122000000000     0.674500000000     0.443100000000     0          
O        O      0.455100000000     0.535700000000     0.093800000000     0          
O        O      0.491300000000     0.974500000000     0.064600000000     0          
T        Si     0.450500000000     0.997000000000     0.068100000000     0          
O        O      0.031200000000     0.589300000000     0.169900000000     0          
O        O      0.060400000000     0.650500000000     0.133700000000     0          
T        Si     0.056900000000     0.628000000000     0.174500000000     0          
O        O      0.035700000000     0.906200000000     0.294900000000     0          
O        O      0.474500000000     0.935400000000     0.258700000000     0          
T        Si     0.497000000000     0.931900000000     0.299500000000     0          
O        O      0.218800000000     0.910700000000     0.419900000000     0          
O        O      0.189600000000     0.849500000000     0.383700000000     0          
T        Si     0.193100000000     0.872000000000     0.424500000000     0          
O        O      0.214300000000     0.593800000000     0.044900000000     0          
O        O      0.275500000000     0.564600000000     0.008700000000     0          
T        Si     0.253000000000     0.568100000000     0.049500000000     0          
O        O      0.031200000000     0.910700000000     0.080100000000     0          
O        O      0.060400000000     0.849500000000     0.116300000000     0          
T        Si     0.056900000000     0.872000000000     0.075500000000     0          
O        O      0.214300000000     0.906200000000     0.205100000000     0          
O        O      0.275500000000     0.935400000000     0.241300000000     0          
T        Si     0.253000000000     0.931900000000     0.200500000000     0          
O        O      0.218800000000     0.589300000000     0.330100000000     0          
O        O      0.189600000000     0.650500000000     0.366300000000     0          
T        Si     0.193100000000     0.628000000000     0.325500000000     0          
O        O      0.035700000000     0.593800000000     0.455100000000     0          
O        O      0.474500000000     0.564600000000     0.491300000000     0          
T        Si     0.497000000000     0.568100000000     0.450500000000     0          
O        O      0.169900000000     0.531200000000     0.089300000000     0          
O        O      0.133700000000     0.560400000000     0.150500000000     0          
T        Si     0.174500000000     0.556900000000     0.128000000000     0          
O        O      0.419900000000     0.718800000000     0.410700000000     0          
O        O      0.383700000000     0.689600000000     0.349500000000     0          
T        Si     0.424500000000     0.693100000000     0.372000000000     0          
O        O      0.406200000000     0.794900000000     0.035700000000     0          
O        O      0.435400000000     0.758700000000     0.474500000000     0          
T        Si     0.431900000000     0.799500000000     0.497000000000     0          
O        O      0.330100000000     0.781200000000     0.160700000000     0          
O        O      0.366300000000     0.810400000000     0.099500000000     0          
T        Si     0.325500000000     0.806900000000     0.122000000000     0          
O        O      0.093800000000     0.955100000000     0.035700000000     0          
O        O      0.064600000000     0.991300000000     0.474500000000     0          
T        Si     0.068100000000     0.950500000000     0.497000000000     0          
O        O      0.080100000000     0.968800000000     0.339300000000     0          
O        O      0.116300000000     0.939600000000     0.400500000000     0          
T        Si     0.075500000000     0.943100000000     0.378000000000     0          
O        O      0.406200000000     0.705100000000     0.214300000000     0          
O        O      0.435400000000     0.741300000000     0.275500000000     0          
T        Si     0.431900000000     0.700500000000     0.253000000000     0          
O        O      0.343800000000     0.794900000000     0.464300000000     0          
O        O      0.314600000000     0.758700000000     0.025500000000     0          
T        Si     0.318100000000     0.799500000000     0.003000000000     0          
O        O      0.410700000000     0.830100000000     0.468800000000     0          
O        O      0.349500000000     0.866300000000     0.439600000000     0          
T        Si     0.372000000000     0.825500000000     0.443100000000     0          
O        O      0.044900000000     0.535700000000     0.343800000000     0          
O        O      0.008700000000     0.974500000000     0.314600000000     0          
T        Si     0.049500000000     0.997000000000     0.318100000000     0          
O        O      0.339300000000     0.669900000000     0.218800000000     0          
O        O      0.400500000000     0.633700000000     0.189600000000     0          
T        Si     0.378000000000     0.674500000000     0.193100000000     0          
O        O      0.205100000000     0.964300000000     0.093800000000     0          
O        O      0.241300000000     0.525500000000     0.064600000000     0          
T        Si     0.200500000000     0.503000000000     0.068100000000     0          
O        O      0.410700000000     0.669900000000     0.281200000000     0          
O        O      0.349500000000     0.633700000000     0.310400000000     0          
T        Si     0.372000000000     0.674500000000     0.306900000000     0          
O        O      0.205100000000     0.535700000000     0.156200000000     0          
O        O      0.241300000000     0.974500000000     0.185400000000     0          
T        Si     0.200500000000     0.997000000000     0.181900000000     0          
O        O      0.339300000000     0.830100000000     0.031200000000     0          
O        O      0.400500000000     0.866300000000     0.060400000000     0          
T        Si     0.378000000000     0.825500000000     0.056900000000     0          
O        O      0.044900000000     0.964300000000     0.406200000000     0          
O        O      0.008700000000     0.525500000000     0.435400000000     0          
T        Si     0.049500000000     0.503000000000     0.431900000000     0          
O        O      0.468800000000     0.910700000000     0.330100000000     0          
O        O      0.439600000000     0.849500000000     0.366300000000     0          
T        Si     0.443100000000     0.872000000000     0.325500000000     0          
O        O      0.464300000000     0.593800000000     0.205100000000     0          
O        O      0.025500000000     0.564600000000     0.241300000000     0          
T        Si     0.003000000000     0.568100000000     0.200500000000     0          
O        O      0.281200000000     0.589300000000     0.080100000000     0          
O        O      0.310400000000     0.650500000000     0.116300000000     0          
T        Si     0.306900000000     0.628000000000     0.075500000000     0          
O        O      0.285700000000     0.906200000000     0.455100000000     0          
O        O      0.224500000000     0.935400000000     0.491300000000     0          
T        Si     0.247000000000     0.931900000000     0.450500000000     0          
O        O      0.468800000000     0.589300000000     0.419900000000     0          
O        O      0.439600000000     0.650500000000     0.383700000000     0          
T        Si     0.443100000000     0.628000000000     0.424500000000     0          
O        O      0.285700000000     0.593800000000     0.294900000000     0          
O        O      0.224500000000     0.564600000000     0.258700000000     0          
T        Si     0.247000000000     0.568100000000     0.299500000000     0          
O        O      0.281200000000     0.910700000000     0.169900000000     0          
O        O      0.310400000000     0.849500000000     0.133700000000     0          
T        Si     0.306900000000     0.872000000000     0.174500000000     0          
O        O      0.464300000000     0.906200000000     0.044900000000     0          
O        O      0.025500000000     0.935400000000     0.008700000000     0          
T        Si     0.003000000000     0.931900000000     0.049500000000     0          
O        O      0.330100000000     0.968800000000     0.410700000000     0          
O        O      0.366300000000     0.939600000000     0.349500000000     0          
T        Si     0.325500000000     0.943100000000     0.372000000000     0          
O        O      0.080100000000     0.781200000000     0.089300000000     0          
O        O      0.116300000000     0.810400000000     0.150500000000     0          
T        Si     0.075500000000     0.806900000000     0.128000000000     0          
O        O      0.093800000000     0.705100000000     0.464300000000     0          
O        O      0.064600000000     0.741300000000     0.025500000000     0          
T        Si     0.068100000000     0.700500000000     0.003000000000     0          
O        O      0.169900000000     0.718800000000     0.339300000000     0          
O        O      0.133700000000     0.689600000000     0.400500000000     0          
T        Si     0.174500000000     0.693100000000     0.378000000000     0          
O        O      0.406200000000     0.544900000000     0.464300000000     0          
O        O      0.435400000000     0.508700000000     0.025500000000     0          
T        Si     0.431900000000     0.549500000000     0.003000000000     0          
O        O      0.419900000000     0.531200000000     0.160700000000     0          
O        O      0.383700000000     0.560400000000     0.099500000000     0          
T        Si     0.424500000000     0.556900000000     0.122000000000     0          
O        O      0.093800000000     0.794900000000     0.285700000000     0          
O        O      0.064600000000     0.758700000000     0.224500000000     0          
T        Si     0.068100000000     0.799500000000     0.247000000000     0          
O        O      0.156200000000     0.705100000000     0.035700000000     0          
O        O      0.185400000000     0.741300000000     0.474500000000     0          
T        Si     0.181900000000     0.700500000000     0.497000000000     0          
O        O      0.339300000000     0.919900000000     0.281200000000     0          
O        O      0.400500000000     0.883700000000     0.310400000000     0          
T        Si     0.378000000000     0.924500000000     0.306900000000     0          
O        O      0.205100000000     0.714300000000     0.406200000000     0          
O        O      0.241300000000     0.775500000000     0.435400000000     0          
T        Si     0.200500000000     0.753000000000     0.431900000000     0          
O        O      0.410700000000     0.580100000000     0.031200000000     0          
O        O      0.349500000000     0.616300000000     0.060400000000     0          
T        Si     0.372000000000     0.575500000000     0.056900000000     0          
O        O      0.044900000000     0.785700000000     0.156200000000     0          
O        O      0.008700000000     0.724500000000     0.185400000000     0          
T        Si     0.049500000000     0.747000000000     0.181900000000     0          
O        O      0.339300000000     0.580100000000     0.468800000000     0          
O        O      0.400500000000     0.616300000000     0.439600000000     0          
T        Si     0.378000000000     0.575500000000     0.443100000000     0          
O        O      0.044900000000     0.714300000000     0.093800000000     0          
O        O      0.008700000000     0.775500000000     0.064600000000     0          
T        Si     0.049500000000     0.753000000000     0.068100000000     0          
O        O      0.410700000000     0.919900000000     0.218800000000     0          
O        O      0.349500000000     0.883700000000     0.189600000000     0          
T        Si     0.372000000000     0.924500000000     0.193100000000     0          
O        O      0.205100000000     0.785700000000     0.343800000000     0          
O        O      0.241300000000     0.724500000000     0.314600000000     0          
T        Si     0.200500000000     0.747000000000     0.318100000000     0          
O        O      0.281200000000     0.839300000000     0.419900000000     0          
O        O      0.310400000000     0.900500000000     0.383700000000     0          
T        Si     0.306900000000     0.878000000000     0.424500000000     0          
O        O      0.285700000000     0.656200000000     0.044900000000     0          
O        O      0.224500000000     0.685400000000     0.008700000000     0          
T        Si     0.247000000000     0.681900000000     0.049500000000     0          
O        O      0.468800000000     0.660700000000     0.169900000000     0          
O        O      0.439600000000     0.599500000000     0.133700000000     0          
T        Si     0.443100000000     0.622000000000     0.174500000000     0          
O        O      0.464300000000     0.843800000000     0.294900000000     0          
O        O      0.025500000000     0.814600000000     0.258700000000     0          
T        Si     0.003000000000     0.818100000000     0.299500000000     0          
O        O      0.281200000000     0.660700000000     0.330100000000     0          
O        O      0.310400000000     0.599500000000     0.366300000000     0          
T        Si     0.306900000000     0.622000000000     0.325500000000     0          
O        O      0.464300000000     0.656200000000     0.455100000000     0          
O        O      0.025500000000     0.685400000000     0.491300000000     0          
T        Si     0.003000000000     0.681900000000     0.450500000000     0          
O        O      0.468800000000     0.839300000000     0.080100000000     0          
O        O      0.439600000000     0.900500000000     0.116300000000     0          
T        Si     0.443100000000     0.878000000000     0.075500000000     0          
O        O      0.285700000000     0.843800000000     0.205100000000     0          
O        O      0.224500000000     0.814600000000     0.241300000000     0          
T        Si     0.247000000000     0.818100000000     0.200500000000     0          
O        O      0.419900000000     0.781200000000     0.339300000000     0          
O        O      0.383700000000     0.810400000000     0.400500000000     0          
T        Si     0.424500000000     0.806900000000     0.378000000000     0          
O        O      0.169900000000     0.968800000000     0.160700000000     0          
O        O      0.133700000000     0.939600000000     0.099500000000     0          
T        Si     0.174500000000     0.943100000000     0.122000000000     0          
O        O      0.156200000000     0.544900000000     0.285700000000     0          
O        O      0.185400000000     0.508700000000     0.224500000000     0          
T        Si     0.181900000000     0.549500000000     0.247000000000     0          
O        O      0.080100000000     0.531200000000     0.410700000000     0          
O        O      0.116300000000     0.560400000000     0.349500000000     0          
T        Si     0.075500000000     0.556900000000     0.372000000000     0          
O        O      0.343800000000     0.705100000000     0.285700000000     0          
O        O      0.314600000000     0.741300000000     0.224500000000     0          
T        Si     0.318100000000     0.700500000000     0.247000000000     0          
O        O      0.330100000000     0.718800000000     0.089300000000     0          
O        O      0.366300000000     0.689600000000     0.150500000000     0          
T        Si     0.325500000000     0.693100000000     0.128000000000     0          
O        O      0.156200000000     0.955100000000     0.464300000000     0          
O        O      0.185400000000     0.991300000000     0.025500000000     0          
T        Si     0.181900000000     0.950500000000     0.003000000000     0          
O        O      0.093800000000     0.544900000000     0.214300000000     0          
O        O      0.064600000000     0.508700000000     0.275500000000     0          
T        Si     0.068100000000     0.549500000000     0.253000000000     0          
O        O      0.160700000000     0.580100000000     0.218800000000     0          
O        O      0.099500000000     0.616300000000     0.189600000000     0          
T        Si     0.122000000000     0.575500000000     0.193100000000     0          
O        O      0.294900000000     0.785700000000     0.093800000000     0          
O        O      0.258700000000     0.724500000000     0.064600000000     0          
T        Si     0.299500000000     0.747000000000     0.068100000000     0          
O        O      0.089300000000     0.919900000000     0.468800000000     0          
O        O      0.150500000000     0.883700000000     0.439600000000     0          
T        Si     0.128000000000     0.924500000000     0.443100000000     0          
O        O      0.455100000000     0.714300000000     0.343800000000     0          
O        O      0.491300000000     0.775500000000     0.314600000000     0          
T        Si     0.450500000000     0.753000000000     0.318100000000     0          
O        O      0.160700000000     0.919900000000     0.031200000000     0          
O        O      0.099500000000     0.883700000000     0.060400000000     0          
T        Si     0.122000000000     0.924500000000     0.056900000000     0          
O        O      0.455100000000     0.785700000000     0.406200000000     0          
O        O      0.491300000000     0.724500000000     0.435400000000     0          
T        Si     0.450500000000     0.747000000000     0.431900000000     0          
O        O      0.089300000000     0.580100000000     0.281200000000     0          
O        O      0.150500000000     0.616300000000     0.310400000000     0          
T        Si     0.128000000000     0.575500000000     0.306900000000     0          
O        O      0.294900000000     0.714300000000     0.156200000000     0          
O        O      0.258700000000     0.775500000000     0.185400000000     0          
T        Si     0.299500000000     0.753000000000     0.181900000000     0          
O        O      0.218800000000     0.660700000000     0.080100000000     0          
O        O      0.189600000000     0.599500000000     0.116300000000     0          
T        Si     0.193100000000     0.622000000000     0.075500000000     0          
O        O      0.214300000000     0.843800000000     0.455100000000     0          
O        O      0.275500000000     0.814600000000     0.491300000000     0          
T        Si     0.253000000000     0.818100000000     0.450500000000     0          
O        O      0.031200000000     0.839300000000     0.330100000000     0          
O        O      0.060400000000     0.900500000000     0.366300000000     0          
T        Si     0.056900000000     0.878000000000     0.325500000000     0          
O        O      0.035700000000     0.656200000000     0.205100000000     0          
O        O      0.474500000000     0.685400000000     0.241300000000     0          
T        Si     0.497000000000     0.681900000000     0.200500000000     0          
O        O      0.218800000000     0.839300000000     0.169900000000     0          
O        O      0.189600000000     0.900500000000     0.133700000000     0          
T        Si     0.193100000000     0.878000000000     0.174500000000     0          
O        O      0.035700000000     0.843800000000     0.044900000000     0          
O        O      0.474500000000     0.814600000000     0.008700000000     0          
T        Si     0.497000000000     0.818100000000     0.049500000000     0          
O        O      0.031200000000     0.660700000000     0.419900000000     0          
O        O      0.060400000000     0.599500000000     0.383700000000     0          
T        Si     0.056900000000     0.622000000000     0.424500000000     0          
O        O      0.214300000000     0.656200000000     0.294900000000     0          
O        O      0.275500000000     0.685400000000     0.258700000000     0          
T        Si     0.253000000000     0.681900000000     0.299500000000     0          
O        O      0.080100000000     0.718800000000     0.160700000000     0          
O        O      0.116300000000     0.689600000000     0.099500000000     0          
T        Si     0.075500000000     0.693100000000     0.122000000000     0          
O        O      0.330100000000     0.531200000000     0.339300000000     0          
O        O      0.366300000000     0.560400000000     0.400500000000     0          
T        Si     0.325500000000     0.556900000000     0.378000000000     0          
O        O      0.343800000000     0.955100000000     0.214300000000     0          
O        O      0.314600000000     0.991300000000     0.275500000000     0          
T        Si     0.318100000000     0.950500000000     0.253000000000     0          
O        O      0.419900000000     0.968800000000     0.089300000000     0          
O        O      0.383700000000     0.939600000000     0.150500000000     0          
T        Si     0.424500000000     0.943100000000     0.128000000000     0          
O        O      0.156200000000     0.794900000000     0.214300000000     0          
O        O      0.185400000000     0.758700000000     0.275500000000     0          
T        Si     0.181900000000     0.799500000000     0.253000000000     0          
O        O      0.169900000000     0.781200000000     0.410700000000     0          
O        O      0.133700000000     0.810400000000     0.349500000000     0          
T        Si     0.174500000000     0.806900000000     0.372000000000     0          
O        O      0.343800000000     0.544900000000     0.035700000000     0          
O        O      0.314600000000     0.508700000000     0.474500000000     0          
T        Si     0.318100000000     0.549500000000     0.497000000000     0          
O        O      0.406200000000     0.955100000000     0.285700000000     0          
O        O      0.435400000000     0.991300000000     0.224500000000     0          
T        Si     0.431900000000     0.950500000000     0.247000000000     0          
O        O      0.089300000000     0.669900000000     0.531200000000     0          
O        O      0.150500000000     0.633700000000     0.560400000000     0          
T        Si     0.128000000000     0.674500000000     0.556900000000     0          
O        O      0.455100000000     0.964300000000     0.656200000000     0          
O        O      0.491300000000     0.525500000000     0.685400000000     0          
T        Si     0.450500000000     0.503000000000     0.681900000000     0          
O        O      0.160700000000     0.830100000000     0.781200000000     0          
O        O      0.099500000000     0.866300000000     0.810400000000     0          
T        Si     0.122000000000     0.825500000000     0.806900000000     0          
O        O      0.294900000000     0.535700000000     0.906200000000     0          
O        O      0.258700000000     0.974500000000     0.935400000000     0          
T        Si     0.299500000000     0.997000000000     0.931900000000     0          
O        O      0.089300000000     0.830100000000     0.718800000000     0          
O        O      0.150500000000     0.866300000000     0.689600000000     0          
T        Si     0.128000000000     0.825500000000     0.693100000000     0          
O        O      0.294900000000     0.964300000000     0.843800000000     0          
O        O      0.258700000000     0.525500000000     0.814600000000     0          
T        Si     0.299500000000     0.503000000000     0.818100000000     0          
O        O      0.160700000000     0.669900000000     0.968800000000     0          
O        O      0.099500000000     0.633700000000     0.939600000000     0          
T        Si     0.122000000000     0.674500000000     0.943100000000     0          
O        O      0.455100000000     0.535700000000     0.593800000000     0          
O        O      0.491300000000     0.974500000000     0.564600000000     0          
T        Si     0.450500000000     0.997000000000     0.568100000000     0          
O        O      0.031200000000     0.589300000000     0.669900000000     0          
O        O      0.060400000000     0.650500000000     0.633700000000     0          
T        Si     0.056900000000     0.628000000000     0.674500000000     0          
O        O      0.035700000000     0.906200000000     0.794900000000     0          
O        O      0.474500000000     0.935400000000     0.758700000000     0          
T        Si     0.497000000000     0.931900000000     0.799500000000     0          
O        O      0.218800000000     0.910700000000     0.919900000000     0          
O        O      0.189600000000     0.849500000000     0.883700000000     0          
T        Si     0.193100000000     0.872000000000     0.924500000000     0          
O        O      0.214300000000     0.593800000000     0.544900000000     0          
O        O      0.275500000000     0.564600000000     0.508700000000     0          
T        Si     0.253000000000     0.568100000000     0.549500000000     0          
O        O      0.031200000000     0.910700000000     0.580100000000     0          
O        O      0.060400000000     0.849500000000     0.616300000000     0          
T        Si     0.056900000000     0.872000000000     0.575500000000     0          
O        O      0.214300000000     0.906200000000     0.705100000000     0          
O        O      0.275500000000     0.935400000000     0.741300000000     0          
T        Si     0.253000000000     0.931900000000     0.700500000000     0          
O        O      0.218800000000     0.589300000000     0.830100000000     0          
O        O      0.189600000000     0.650500000000     0.866300000000     0          
T        Si     0.193100000000     0.628000000000     0.825500000000     0          
O        O      0.035700000000     0.593800000000     0.955100000000     0          
O        O      0.474500000000     0.564600000000     0.991300000000     0          
T        Si     0.497000000000     0.568100000000     0.950500000000     0          
O        O      0.169900000000     0.531200000000     0.589300000000     0          
O        O      0.133700000000     0.560400000000     0.650500000000     0          
T        Si     0.174500000000     0.556900000000     0.628000000000     0          
O        O      0.419900000000     0.718800000000     0.910700000000     0          
O        O      0.383700000000     0.689600000000     0.849500000000     0          
T        Si     0.424500000000     0.693100000000     0.872000000000     0          
O        O      0.406200000000     0.794900000000     0.535700000000     0          
O        O      0.435400000000     0.758700000000     0.974500000000     0          
T        Si     0.431900000000     0.799500000000     0.997000000000     0          
O        O      0.330100000000     0.781200000000     0.660700000000     0          
O        O      0.366300000000     0.810400000000     0.599500000000     0          
T        Si     0.325500000000     0.806900000000     0.622000000000     0          
O        O      0.093800000000     0.955100000000     0.535700000000     0          
O        O      0.064600000000     0.991300000000     0.974500000000     0          
T        Si     0.068100000000     0.950500000000     0.997000000000     0          
O        O      0.080100000000     0.968800000000     0.839300000000     0          
O        O      0.116300000000     0.939600000000     0.900500000000     0          
T        Si     0.075500000000     0.943100000000     0.878000000000     0          
O        O      0.406200000000     0.705100000000     0.714300000000     0          
O        O      0.435400000000     0.741300000000     0.775500000000     0          
T        Si     0.431900000000     0.700500000000     0.753000000000     0          
O        O      0.343800000000     0.794900000000     0.964300000000     0          
O        O      0.314600000000     0.758700000000     0.525500000000     0          
T        Si     0.318100000000     0.799500000000     0.503000000000     0          
O        O      0.410700000000     0.830100000000     0.968800000000     0          
O        O      0.349500000000     0.866300000000     0.939600000000     0          
T        Si     0.372000000000     0.825500000000     0.943100000000     0          
O        O      0.044900000000     0.535700000000     0.843800000000     0          
O        O      0.008700000000     0.974500000000     0.814600000000     0          
T        Si     0.049500000000     0.997000000000     0.818100000000     0          
O        O      0.339300000000     0.669900000000     0.718800000000     0          
O        O      0.400500000000     0.633700000000     0.689600000000     0          
T        Si     0.378000000000     0.674500000000     0.693100000000     0          
O        O      0.205100000000     0.964300000000     0.593800000000     0          
O        O      0.241300000000     0.525500000000     0.564600000000     0          
T        Si     0.200500000000     0.503000000000     0.568100000000     0          
O        O      0.410700000000     0.669900000000     0.781200000000     0          
O        O      0.349500000000     0.633700000000     0.810400000000     0          
T        Si     0.372000000000     0.674500000000     0.806900000000     0          
O        O      0.205100000000     0.535700000000     0.656200000000     0          
O        O      0.241300000000     0.974500000000     0.685400000000     0          
T        Si     0.200500000000     0.997000000000     0.681900000000     0          
O        O      0.339300000000     0.830100000000     0.531200000000     0          
O        O      0.400500000000     0.866300000000     0.560400000000     0          
T        Si     0.378000000000     0.825500000000     0.556900000000     0          
O        O      0.044900000000     0.964300000000     0.906200000000     0          
O        O      0.008700000000     0.525500000000     0.935400000000     0          
T        Si     0.049500000000     0.503000000000     0.931900000000     0          
O        O      0.468800000000     0.910700000000     0.830100000000     0          
O        O      0.439600000000     0.849500000000     0.866300000000     0          
T        Si     0.443100000000     0.872000000000     0.825500000000     0          
O        O      0.464300000000     0.593800000000     0.705100000000     0          
O        O      0.025500000000     0.564600000000     0.741300000000     0          
T        Si     0.003000000000     0.568100000000     0.700500000000     0          
O        O      0.281200000000     0.589300000000     0.580100000000     0          
O        O      0.310400000000     0.650500000000     0.616300000000     0          
T        Si     0.306900000000     0.628000000000     0.575500000000     0          
O        O      0.285700000000     0.906200000000     0.955100000000     0          
O        O      0.224500000000     0.935400000000     0.991300000000     0          
T        Si     0.247000000000     0.931900000000     0.950500000000     0          
O        O      0.468800000000     0.589300000000     0.919900000000     0          
O        O      0.439600000000     0.650500000000     0.883700000000     0          
T        Si     0.443100000000     0.628000000000     0.924500000000     0          
O        O      0.285700000000     0.593800000000     0.794900000000     0          
O        O      0.224500000000     0.564600000000     0.758700000000     0          
T        Si     0.247000000000     0.568100000000     0.799500000000     0          
O        O      0.281200000000     0.910700000000     0.669900000000     0          
O        O      0.310400000000     0.849500000000     0.633700000000     0          
T        Si     0.306900000000     0.872000000000     0.674500000000     0          
O        O      0.464300000000     0.906200000000     0.544900000000     0          
O        O      0.025500000000     0.935400000000     0.508700000000     0          
T        Si     0.003000000000     0.931900000000     0.549500000000     0          
O        O      0.330100000000     0.968800000000     0.910700000000     0          
O        O      0.366300000000     0.939600000000     0.849500000000     0          
T        Si     0.325500000000     0.943100000000     0.872000000000     0          
O        O      0.080100000000     0.781200000000     0.589300000000     0          
O        O      0.116300000000     0.810400000000     0.650500000000     0          
T        Si     0.075500000000     0.806900000000     0.628000000000     0          
O        O      0.093800000000     0.705100000000     0.964300000000     0          
O        O      0.064600000000     0.741300000000     0.525500000000     0          
T        Si     0.068100000000     0.700500000000     0.503000000000     0          
O        O      0.169900000000     0.718800000000     0.839300000000     0          
O        O      0.133700000000     0.689600000000     0.900500000000     0          
T        Si     0.174500000000     0.693100000000     0.878000000000     0          
O        O      0.406200000000     0.544900000000     0.964300000000     0          
O        O      0.435400000000     0.508700000000     0.525500000000     0          
T        Si     0.431900000000     0.549500000000     0.503000000000     0          
O        O      0.419900000000     0.531200000000     0.660700000000     0          
O        O      0.383700000000     0.560400000000     0.599500000000     0          
T        Si     0.424500000000     0.556900000000     0.622000000000     0          
O        O      0.093800000000     0.794900000000     0.785700000000     0          
O        O      0.064600000000     0.758700000000     0.724500000000     0          
T        Si     0.068100000000     0.799500000000     0.747000000000     0          
O        O      0.156200000000     0.705100000000     0.535700000000     0          
O        O      0.185400000000     0.741300000000     0.974500000000     0          
T        Si     0.181900000000     0.700500000000     0.997000000000     0          
O        O      0.339300000000     0.919900000000     0.781200000000     0          
O        O      0.400500000000     0.883700000000     0.810400000000     0          
T        Si     0.378000000000     0.924500000000     0.806900000000     0          
O        O      0.205100000000     0.714300000000     0.906200000000     0          
O        O      0.241300000000     0.775500000000     0.935400000000     0          
T        Si     0.200500000000     0.753000000000     0.931900000000     0          
O        O      0.410700000000     0.580100000000     0.531200000000     0          
O        O      0.349500000000     0.616300000000     0.560400000000     0          
T        Si     0.372000000000     0.575500000000     0.556900000000     0          
O        O      0.044900000000     0.785700000000     0.656200000000     0          
O        O      0.008700000000     0.724500000000     0.685400000000     0          
T        Si     0.049500000000     0.747000000000     0.681900000000     0          
O        O      0.339300000000     0.580100000000     0.968800000000     0          
O        O      0.400500000000     0.616300000000     0.939600000000     0          
T        Si     0.378000000000     0.575500000000     0.943100000000     0          
O        O      0.044900000000     0.714300000000     0.593800000000     0          
O        O      0.008700000000     0.775500000000     0.564600000000     0          
T        Si     0.049500000000     0.753000000000     0.568100000000     0          
O        O      0.410700000000     0.919900000000     0.718800000000     0          
O        O      0.349500000000     0.883700000000     0.689600000000     0          
T        Si     0.372000000000     0.924500000000     0.693100000000     0          
O        O      0.205100000000     0.785700000000     0.843800000000     0          
O        O      0.241300000000     0.724500000000     0.814600000000     0          
T        Si     0.200500000000     0.747000000000     0.818100000000     0          
O        O      0.281200000000     0.839300000000     0.919900000000     0          
O        O      0.310400000000     0.900500000000     0.883700000000     0          
T        Si     0.306900000000     0.878000000000     0.924500000000     0          
O        O      0.285700000000     0.656200000000     0.544900000000     0          
O        O      0.224500000000     0.685400000000     0.508700000000     0          
T        Si     0.247000000000     0.681900000000     0.549500000000     0          
O        O      0.468800000000     0.660700000000     0.669900000000     0          
O        O      0.439600000000     0.599500000000     0.633700000000     0          
T        Si     0.443100000000     0.622000000000     0.674500000000     0          
O        O      0.464300000000     0.843800000000     0.794900000000     0          
O        O      0.025500000000     0.814600000000     0.758700000000     0          
T        Si     0.003000000000     0.818100000000     0.799500000000     0          
O        O      0.281200000000     0.660700000000     0.830100000000     0          
O        O      0.310400000000     0.599500000000     0.866300000000     0          
T        Si     0.306900000000     0.622000000000     0.825500000000     0          
O        O      0.464300000000     0.656200000000     0.955100000000     0          
O        O      0.025500000000     0.685400000000     0.991300000000     0          
T        Si     0.003000000000     0.681900000000     0.950500000000     0          
O        O      0.468800000000     0.839300000000     0.580100000000     0          
O        O      0.439600000000     0.900500000000     0.616300000000     0          
T        Si     0.443100000000     0.878000000000     0.575500000000     0          
O        O      0.285700000000     0.843800000000     0.705100000000     0          
O        O      0.224500000000     0.814600000000     0.741300000000     0          
T        Si     0.247000000000     0.818100000000     0.700500000000     0          
O        O      0.419900000000     0.781200000000     0.839300000000     0          
O        O      0.383700000000     0.810400000000     0.900500000000     0          
T        Si     0.424500000000     0.806900000000     0.878000000000     0          
O        O      0.169900000000     0.968800000000     0.660700000000     0          
O        O      0.133700000000     0.939600000000     0.599500000000     0          
T        Si     0.174500000000     0.943100000000     0.622000000000     0          
O        O      0.156200000000     0.544900000000     0.785700000000     0          
O        O      0.185400000000     0.508700000000     0.724500000000     0          
T        Si     0.181900000000     0.549500000000     0.747000000000     0          
O        O      0.080100000000     0.531200000000     0.910700000000     0          
O        O      0.116300000000     0.560400000000     0.849500000000     0          
T        Si     0.075500000000     0.556900000000     0.872000000000     0          
O        O      0.343800000000     0.705100000000     0.785700000000     0          
O        O      0.314600000000     0.741300000000     0.724500000000     0          
T        Si     0.318100000000     0.700500000000     0.747000000000     0          
O        O      0.330100000000     0.718800000000     0.589300000000     0          
O        O      0.366300000000     0.689600000000     0.650500000000     0          
T        Si     0.325500000000     0.693100000000     0.628000000000     0          
O        O      0.156200000000     0.955100000000     0.964300000000     0          
O        O      0.185400000000     0.991300000000     0.525500000000     0          
T        Si     0.181900000000     0.950500000000     0.503000000000     0          
O        O      0.093800000000     0.544900000000     0.714300000000     0          
O        O      0.064600000000     0.508700000000     0.775500000000     0          
T        Si     0.068100000000     0.549500000000     0.753000000000     0          
O        O      0.160700000000     0.580100000000     0.718800000000     0          
O        O      0.099500000000     0.616300000000     0.689600000000     0          
T        Si     0.122000000000     0.575500000000     0.693100000000     0          
O        O      0.294900000000     0.785700000000     0.593800000000     0          
O        O      0.258700000000     0.724500000000     0.564600000000     0          
T        Si     0.299500000000     0.747000000000     0.568100000000     0          
O        O      0.089300000000     0.919900000000     0.968800000000     0          
O        O      0.150500000000     0.883700000000     0.939600000000     0          
T        Si     0.128000000000     0.924500000000     0.943100000000     0          
O        O      0.455100000000     0.714300000000     0.843800000000     0          
O        O      0.491300000000     0.775500000000     0.814600000000     0          
T        Si     0.450500000000     0.753000000000     0.818100000000     0          
O        O      0.160700000000     0.919900000000     0.531200000000     0          
O        O      0.099500000000     0.883700000000     0.560400000000     0          
T        Si     0.122000000000     0.924500000000     0.556900000000     0          
O        O      0.455100000000     0.785700000000     0.906200000000     0          
O        O      0.491300000000     0.724500000000     0.935400000000     0          
T        Si     0.450500000000     0.747000000000     0.931900000000     0          
O        O      0.089300000000     0.580100000000     0.781200000000     0          
O        O      0.150500000000     0.616300000000     0.810400000000     0          
T        Si     0.128000000000     0.575500000000     0.806900000000     0          
O        O      0.294900000000     0.714300000000     0.656200000000     0          
O        O      0.258700000000     0.775500000000     0.685400000000     0          
T        Si     0.299500000000     0.753000000000     0.681900000000     0          
O        O      0.218800000000     0.660700000000     0.580100000000     0          
O        O      0.189600000000     0.599500000000     0.616300000000     0          
T        Si     0.193100000000     0.622000000000     0.575500000000     0          
O        O      0.214300000000     0.843800000000     0.955100000000     0          
O        O      0.275500000000     0.814600000000     0.991300000000     0          
T        Si     0.253000000000     0.818100000000     0.950500000000     0          
O        O      0.031200000000     0.839300000000     0.830100000000     0          
O        O      0.060400000000     0.900500000000     0.866300000000     0          
T        Si     0.056900000000     0.878000000000     0.825500000000     0          
O        O      0.035700000000     0.656200000000     0.705100000000     0          
O        O      0.474500000000     0.685400000000     0.741300000000     0          
T        Si     0.497000000000     0.681900000000     0.700500000000     0          
O        O      0.218800000000     0.839300000000     0.669900000000     0          
O        O      0.189600000000     0.900500000000     0.633700000000     0          
T        Si     0.193100000000     0.878000000000     0.674500000000     0          
O        O      0.035700000000     0.843800000000     0.544900000000     0          
O        O      0.474500000000     0.814600000000     0.508700000000     0          
T        Si     0.497000000000     0.818100000000     0.549500000000     0          
O        O      0.031200000000     0.660700000000     0.919900000000     0          
O        O      0.060400000000     0.599500000000     0.883700000000     0          
T        Si     0.056900000000     0.622000000000     0.924500000000     0          
O        O      0.214300000000     0.656200000000     0.794900000000     0          
O        O      0.275500000000     0.685400000000     0.758700000000     0          
T        Si     0.253000000000     0.681900000000     0.799500000000     0          
O        O      0.080100000000     0.718800000000     0.660700000000     0          
O        O      0.116300000000     0.689600000000     0.599500000000     0          
T        Si     0.075500000000     0.693100000000     0.622000000000     0          
O        O      0.330100000000     0.531200000000     0.839300000000     0          
O        O      0.366300000000     0.560400000000     0.900500000000     0          
T        Si     0.325500000000     0.556900000000     0.878000000000     0          
O        O      0.343800000000     0.955100000000     0.714300000000     0          
O        O      0.314600000000     0.991300000000     0.775500000000     0          
T        Si     0.318100000000     0.950500000000     0.753000000000     0          
O        O      0.419900000000     0.968800000000     0.589300000000     0          
O        O      0.383700000000     0.939600000000     0.650500000000     0          
T        Si     0.424500000000     0.943100000000     0.628000000000     0          
O        O      0.156200000000     0.794900000000     0.714300000000     0          
O        O      0.185400000000     0.758700000000     0.775500000000     0          
T        Si     0.181900000000     0.799500000000     0.753000000000     0          
O        O      0.169900000000     0.781200000000     0.910700000000     0          
O        O      0.133700000000     0.810400000000     0.849500000000     0          
T        Si     0.174500000000     0.806900000000     0.872000000000     0          
O        O      0.343800000000     0.544900000000     0.535700000000     0          
O        O      0.314600000000     0.508700000000     0.974500000000     0          
T        Si     0.318100000000     0.549500000000     0.997000000000     0          
O        O      0.406200000000     0.955100000000     0.785700000000     0          
O        O      0.435400000000     0.991300000000     0.724500000000     0          
T        Si     0.431900000000     0.950500000000     0.747000000000     0          
O        O      0.589300000000     0.169900000000     0.031200000000     0          
O        O      0.650500000000     0.133700000000     0.060400000000     0          
T        Si     0.628000000000     0.174500000000     0.056900000000     0          
O        O      0.955100000000     0.464300000000     0.156200000000     0          
O        O      0.991300000000     0.025500000000     0.185400000000     0          
T        Si     0.950500000000     0.003000000000     0.181900000000     0          
O        O      0.660700000000     0.330100000000     0.281200000000     0          
O        O      0.599500000000     0.366300000000     0.310400000000     0          
T        Si     0.622000000000     0.325500000000     0.306900000000     0          
O        O      0.794900000000     0.035700000000     0.406200000000     0          
O        O      0.758700000000     0.474500000000     0.435400000000     0          
T        Si     0.799500000000     0.497000000000     0.431900000000     0          
O        O      0.589300000000     0.330100000000     0.218800000000     0          
O        O      0.650500000000     0.366300000000     0.189600000000     0          
T        Si     0.628000000000     0.325500000000     0.193100000000     0          
O        O      0.794900000000     0.464300000000     0.343800000000     0          
O        O      0.758700000000     0.025500000000     0.314600000000     0          
T        Si     0.799500000000     0.003000000000     0.318100000000     0          
O        O      0.660700000000     0.169900000000     0.468800000000     0          
O        O      0.599500000000     0.133700000000     0.439600000000     0          
T        Si     0.622000000000     0.174500000000     0.443100000000     0          
O        O      0.955100000000     0.035700000000     0.093800000000     0          
O        O      0.991300000000     0.474500000000     0.064600000000     0          
T        Si     0.950500000000     0.497000000000     0.068100000000     0          
O        O      0.531200000000     0.089300000000     0.169900000000     0          
O        O      0.560400000000     0.150500000000     0.133700000000     0          
T        Si     0.556900000000     0.128000000000     0.174500000000     0          
O        O      0.535700000000     0.406200000000     0.294900000000     0          
O        O      0.974500000000     0.435400000000     0.258700000000     0          
T        Si     0.997000000000     0.431900000000     0.299500000000     0          
O        O      0.718800000000     0.410700000000     0.419900000000     0          
O        O      0.689600000000     0.349500000000     0.383700000000     0          
T        Si     0.693100000000     0.372000000000     0.424500000000     0          
O        O      0.714300000000     0.093800000000     0.044900000000     0          
O        O      0.775500000000     0.064600000000     0.008700000000     0          
T        Si     0.753000000000     0.068100000000     0.049500000000     0          
O        O      0.531200000000     0.410700000000     0.080100000000     0          
O        O      0.560400000000     0.349500000000     0.116300000000     0          
T        Si     0.556900000000     0.372000000000     0.075500000000     0          
O        O      0.714300000000     0.406200000000     0.205100000000     0          
O        O      0.775500000000     0.435400000000     0.241300000000     0          
T        Si     0.753000000000     0.431900000000     0.200500000000     0          
O        O      0.718800000000     0.089300000000     0.330100000000     0          
O        O      0.689600000000     0.150500000000     0.366300000000     0          
T        Si     0.693100000000     0.128000000000     0.325500000000     0          
O        O      0.535700000000     0.093800000000     0.455100000000     0          
O        O      0.974500000000     0.064600000000     0.491300000000     0          
T        Si     0.997000000000     0.068100000000     0.450500000000     0          
O        O      0.669900000000     0.031200000000     0.089300000000     0          
O        O      0.633700000000     0.060400000000     0.150500000000     0          
T        Si     0.674500000000     0.056900000000     0.128000000000     0          
O        O      0.919900000000     0.218800000000     0.410700000000     0          
O        O      0.883700000000     0.189600000000     0.349500000000     0          
T        Si     0.924500000000     0.193100000000     0.372000000000     0          
O        O      0.906200000000     0.294900000000     0.035700000000     0          
O        O      0.935400000000     0.258700000000     0.474500000000     0          
T        Si     0.931900000000     0.299500000000     0.497000000000     0          
O        O      0.830100000000     0.281200000000     0.160700000000     0          
O        O      0.866300000000     0.310400000000     0.099500000000     0          
T        Si     0.825500000000     0.306900000000     0.122000000000     0          
O        O      0.593800000000     0.455100000000     0.035700000000     0          
O        O      0.564600000000     0.491300000000     0.474500000000     0          
T        Si     0.568100000000     0.450500000000     0.497000000000     0          
O        O      0.580100000000     0.468800000000     0.339300000000     0          
O        O      0.616300000000     0.439600000000     0.400500000000     0          
T        Si     0.575500000000     0.443100000000     0.378000000000     0          
O        O      0.906200000000     0.205100000000     0.214300000000     0          
O        O      0.935400000000     0.241300000000     0.275500000000     0          
T        Si     0.931900000000     0.200500000000     0.253000000000     0          
O        O      0.843800000000     0.294900000000     0.464300000000     0          
O        O      0.814600000000     0.258700000000     0.025500000000     0          
T        Si     0.818100000000     0.299500000000     0.003000000000     0          
O        O      0.910700000000     0.330100000000     0.468800000000     0          
O        O      0.849500000000     0.366300000000     0.439600000000     0          
T        Si     0.872000000000     0.325500000000     0.443100000000     0          
O        O      0.544900000000     0.035700000000     0.343800000000     0          
O        O      0.508700000000     0.474500000000     0.314600000000     0          
T        Si     0.549500000000     0.497000000000     0.318100000000     0          
O        O      0.839300000000     0.169900000000     0.218800000000     0          
O        O      0.900500000000     0.133700000000     0.189600000000     0          
T        Si     0.878000000000     0.174500000000     0.193100000000     0          
O        O      0.705100000000     0.464300000000     0.093800000000     0          
O        O      0.741300000000     0.025500000000     0.064600000000     0          
T        Si     0.700500000000     0.003000000000     0.068100000000     0          
O        O      0.910700000000     0.169900000000     0.281200000000     0          
O        O      0.849500000000     0.133700000000     0.310400000000     0          
T        Si     0.872000000000     0.174500000000     0.306900000000     0          
O        O      0.705100000000     0.035700000000     0.156200000000     0          
O        O      0.741300000000     0.474500000000     0.185400000000     0          
T        Si     0.700500000000     0.497000000000     0.181900000000     0          
O        O      0.839300000000     0.330100000000     0.031200000000     0          
O        O      0.900500000000     0.366300000000     0.060400000000     0          
T        Si     0.878000000000     0.325500000000     0.056900000000     0          
O        O      0.544900000000     0.464300000000     0.406200000000     0          
O        O      0.508700000000     0.025500000000     0.435400000000     0          
T        Si     0.549500000000     0.003000000000     0.431900000000     0          
O        O      0.968800000000     0.410700000000     0.330100000000     0          
O        O      0.939600000000     0.349500000000     0.366300000000     0          
T        Si     0.943100000000     0.372000000000     0.325500000000     0          
O        O      0.964300000000     0.093800000000     0.205100000000     0          
O        O      0.525500000000     0.064600000000     0.241300000000     0          
T        Si     0.503000000000     0.068100000000     0.200500000000     0          
O        O      0.781200000000     0.089300000000     0.080100000000     0          
O        O      0.810400000000     0.150500000000     0.116300000000     0          
T        Si     0.806900000000     0.128000000000     0.075500000000     0          
O        O      0.785700000000     0.406200000000     0.455100000000     0          
O        O      0.724500000000     0.435400000000     0.491300000000     0          
T        Si     0.747000000000     0.431900000000     0.450500000000     0          
O        O      0.968800000000     0.089300000000     0.419900000000     0          
O        O      0.939600000000     0.150500000000     0.383700000000     0          
T        Si     0.943100000000     0.128000000000     0.424500000000     0          
O        O      0.785700000000     0.093800000000     0.294900000000     0          
O        O      0.724500000000     0.064600000000     0.258700000000     0          
T        Si     0.747000000000     0.068100000000     0.299500000000     0          
O        O      0.781200000000     0.410700000000     0.169900000000     0          
O        O      0.810400000000     0.349500000000     0.133700000000     0          
T        Si     0.806900000000     0.372000000000     0.174500000000     0          
O        O      0.964300000000     0.406200000000     0.044900000000     0          
O        O      0.525500000000     0.435400000000     0.008700000000     0          
T        Si     0.503000000000     0.431900000000     0.049500000000     0          
O        O      0.830100000000     0.468800000000     0.410700000000     0          
O        O      0.866300000000     0.439600000000     0.349500000000     0          
T        Si     0.825500000000     0.443100000000     0.372000000000     0          
O        O      0.580100000000     0.281200000000     0.089300000000     0          
O        O      0.616300000000     0.310400000000     0.150500000000     0          
T        Si     0.575500000000     0.306900000000     0.128000000000     0          
O        O      0.593800000000     0.205100000000     0.464300000000     0          
O        O      0.564600000000     0.241300000000     0.025500000000     0          
T        Si     0.568100000000     0.200500000000     0.003000000000     0          
O        O      0.669900000000     0.218800000000     0.339300000000     0          
O        O      0.633700000000     0.189600000000     0.400500000000     0          
T        Si     0.674500000000     0.193100000000     0.378000000000     0          
O        O      0.906200000000     0.044900000000     0.464300000000     0          
O        O      0.935400000000     0.008700000000     0.025500000000     0          
T        Si     0.931900000000     0.049500000000     0.003000000000     0          
O        O      0.919900000000     0.031200000000     0.160700000000     0          
O        O      0.883700000000     0.060400000000     0.099500000000     0          
T        Si     0.924500000000     0.056900000000     0.122000000000     0          
O        O      0.593800000000     0.294900000000     0.285700000000     0          
O        O      0.564600000000     0.258700000000     0.224500000000     0          
T        Si     0.568100000000     0.299500000000     0.247000000000     0          
O        O      0.656200000000     0.205100000000     0.035700000000     0          
O        O      0.685400000000     0.241300000000     0.474500000000     0          
T        Si     0.681900000000     0.200500000000     0.497000000000     0          
O        O      0.839300000000     0.419900000000     0.281200000000     0          
O        O      0.900500000000     0.383700000000     0.310400000000     0          
T        Si     0.878000000000     0.424500000000     0.306900000000     0          
O        O      0.705100000000     0.214300000000     0.406200000000     0          
O        O      0.741300000000     0.275500000000     0.435400000000     0          
T        Si     0.700500000000     0.253000000000     0.431900000000     0          
O        O      0.910700000000     0.080100000000     0.031200000000     0          
O        O      0.849500000000     0.116300000000     0.060400000000     0          
T        Si     0.872000000000     0.075500000000     0.056900000000     0          
O        O      0.544900000000     0.285700000000     0.156200000000     0          
O        O      0.508700000000     0.224500000000     0.185400000000     0          
T        Si     0.549500000000     0.247000000000     0.181900000000     0          
O        O      0.839300000000     0.080100000000     0.468800000000     0          
O        O      0.900500000000     0.116300000000     0.439600000000     0          
T        Si     0.878000000000     0.075500000000     0.443100000000     0          
O        O      0.544900000000     0.214300000000     0.093800000000     0          
O        O      0.508700000000     0.275500000000     0.064600000000     0          
T        Si     0.549500000000     0.253000000000     0.068100000000     0          
O        O      0.910700000000     0.419900000000     0.218800000000     0          
O        O      0.849500000000     0.383700000000     0.189600000000     0          
T        Si     0.872000000000     0.424500000000     0.193100000000     0          
O        O      0.705100000000     0.285700000000     0.343800000000     0          
O        O      0.741300000000     0.224500000000     0.314600000000     0          
T        Si     0.700500000000     0.247000000000     0.318100000000     0          
O        O      0.781200000000     0.339300000000     0.419900000000     0          
O        O      0.810400000000     0.400500000000     0.383700000000     0          
T        Si     0.806900000000     0.378000000000     0.424500000000     0          
O        O      0.785700000000     0.156200000000     0.044900000000     0          
O        O      0.724500000000     0.185400000000     0.008700000000     0          
T        Si     0.747000000000     0.181900000000     0.049500000000     0          
O        O      0.968800000000     0.160700000000     0.169900000000     0          
O        O      0.939600000000     0.099500000000     0.133700000000     0          
T        Si     0.943100000000     0.122000000000     0.174500000000     0          
O        O      0.964300000000     0.343800000000     0.294900000000     0          
O        O      0.525500000000     0.314600000000     0.258700000000     0          
T        Si     0.503000000000     0.318100000000     0.299500000000     0          
O        O      0.781200000000     0.160700000000     0.330100000000     0          
O        O      0.810400000000     0.099500000000     0.366300000000     0          
T        Si     0.806900000000     0.122000000000     0.325500000000     0          
O        O      0.964300000000     0.156200000000     0.455100000000     0          
O        O      0.525500000000     0.185400000000     0.491300000000     0          
T        Si     0.503000000000     0.181900000000     0.450500000000     0          
O        O      0.968800000000     0.339300000000     0.080100000000     0          
O        O      0.939600000000     0.400500000000     0.116300000000     0          
T        Si     0.943100000000     0.378000000000     0.075500000000     0          
O        O      0.785700000000     0.343800000000     0.205100000000     0          
O        O      0.724500000000     0.314600000000     0.241300000000     0          
T        Si     0.747000000000     0.318100000000     0.200500000000     0          
O        O      0.919900000000     0.281200000000     0.339300000000     0          
O        O      0.883700000000     0.310400000000     0.400500000000     0          
T        Si     0.924500000000     0.306900000000     0.378000000000     0          
O        O      0.669900000000     0.468800000000     0.160700000000     0          
O        O      0.633700000000     0.439600000000     0.099500000000     0          
T        Si     0.674500000000     0.443100000000     0.122000000000     0          
O        O      0.656200000000     0.044900000000     0.285700000000     0          
O        O      0.685400000000     0.008700000000     0.224500000000     0          
T        Si     0.681900000000     0.049500000000     0.247000000000     0          
O        O      0.580100000000     0.031200000000     0.410700000000     0          
O        O      0.616300000000     0.060400000000     0.349500000000     0          
T        Si     0.575500000000     0.056900000000     0.372000000000     0          
O        O      0.843800000000     0.205100000000     0.285700000000     0          
O        O      0.814600000000     0.241300000000     0.224500000000     0          
T        Si     0.818100000000     0.200500000000     0.247000000000     0          
O        O      0.830100000000     0.218800000000     0.089300000000     0          
O        O      0.866300000000     0.189600000000     0.150500000000     0          
T        Si     0.825500000000     0.193100000000     0.128000000000     0          
O        O      0.656200000000     0.455100000000     0.464300000000     0          
O        O      0.685400000000     0.491300000000     0.025500000000     0          
T        Si     0.681900000000     0.450500000000     0.003000000000     0          
O        O      0.593800000000     0.044900000000     0.214300000000     0          
O        O      0.564600000000     0.008700000000     0.275500000000     0          
T        Si     0.568100000000     0.049500000000     0.253000000000     0          
O        O      0.660700000000     0.080100000000     0.218800000000     0          
O        O      0.599500000000     0.116300000000     0.189600000000     0          
T        Si     0.622000000000     0.075500000000     0.193100000000     0          
O        O      0.794900000000     0.285700000000     0.093800000000     0          
O        O      0.758700000000     0.224500000000     0.064600000000     0          
T        Si     0.799500000000     0.247000000000     0.068100000000     0          
O        O      0.589300000000     0.419900000000     0.468800000000     0          
O        O      0.650500000000     0.383700000000     0.439600000000     0          
T        Si     0.628000000000     0.424500000000     0.443100000000     0          
O        O      0.955100000000     0.214300000000     0.343800000000     0          
O        O      0.991300000000     0.275500000000     0.314600000000     0          
T        Si     0.950500000000     0.253000000000     0.318100000000     0          
O        O      0.660700000000     0.419900000000     0.031200000000     0          
O        O      0.599500000000     0.383700000000     0.060400000000     0          
T        Si     0.622000000000     0.424500000000     0.056900000000     0          
O        O      0.955100000000     0.285700000000     0.406200000000     0          
O        O      0.991300000000     0.224500000000     0.435400000000     0          
T        Si     0.950500000000     0.247000000000     0.431900000000     0          
O        O      0.589300000000     0.080100000000     0.281200000000     0          
O        O      0.650500000000     0.116300000000     0.310400000000     0          
T        Si     0.628000000000     0.075500000000     0.306900000000     0          
O        O      0.794900000000     0.214300000000     0.156200000000     0          
O        O      0.758700000000     0.275500000000     0.185400000000     0          
T        Si     0.799500000000     0.253000000000     0.181900000000     0          
O        O      0.718800000000     0.160700000000     0.080100000000     0          
O        O      0.689600000000     0.099500000000     0.116300000000     0          
T        Si     0.693100000000     0.122000000000     0.075500000000     0          
O        O      0.714300000000     0.343800000000     0.455100000000     0          
O        O      0.775500000000     0.314600000000     0.491300000000     0          
T        Si     0.753000000000     0.318100000000     0.450500000000     0          
O        O      0.531200000000     0.339300000000     0.330100000000     0          
O        O      0.560400000000     0.400500000000     0.366300000000     0          
T        Si     0.556900000000     0.378000000000     0.325500000000     0          
O        O      0.535700000000     0.156200000000     0.205100000000     0          
O        O      0.974500000000     0.185400000000     0.241300000000     0          
T        Si     0.997000000000     0.181900000000     0.200500000000     0          
O        O      0.718800000000     0.339300000000     0.169900000000     0          
O        O      0.689600000000     0.400500000000     0.133700000000     0          
T        Si     0.693100000000     0.378000000000     0.174500000000     0          
O        O      0.535700000000     0.343800000000     0.044900000000     0          
O        O      0.974500000000     0.314600000000     0.008700000000     0          
T        Si     0.997000000000     0.318100000000     0.049500000000     0          
O        O      0.531200000000     0.160700000000     0.419900000000     0          
O        O      0.560400000000     0.099500000000     0.383700000000     0          
T        Si     0.556900000000     0.122000000000     0.424500000000     0          
O        O      0.714300000000     0.156200000000     0.294900000000     0          
O        O      0.775500000000     0.185400000000     0.258700000000     0          
T        Si     0.753000000000     0.181900000000     0.299500000000     0          
O        O      0.580100000000     0.218800000000     0.160700000000     0          
O        O      0.616300000000     0.189600000000     0.099500000000     0          
T        Si     0.575500000000     0.193100000000     0.122000000000     0          
O        O      0.830100000000     0.031200000000     0.339300000000     0          
O        O      0.866300000000     0.060400000000     0.400500000000     0          
T        Si     0.825500000000     0.056900000000     0.378000000000     0          
O        O      0.843800000000     0.455100000000     0.214300000000     0          
O        O      0.814600000000     0.491300000000     0.275500000000     0          
T        Si     0.818100000000     0.450500000000     0.253000000000     0          
O        O      0.919900000000     0.468800000000     0.089300000000     0          
O        O      0.883700000000     0.439600000000     0.150500000000     0          
T        Si     0.924500000000     0.443100000000     0.128000000000     0          
O        O      0.656200000000     0.294900000000     0.214300000000     0          
O        O      0.685400000000     0.258700000000     0.275500000000     0          
T        Si     0.681900000000     0.299500000000     0.253000000000     0          
O        O      0.669900000000     0.281200000000     0.410700000000     0          
O        O      0.633700000000     0.310400000000     0.349500000000     0          
T        Si     0.674500000000     0.306900000000     0.372000000000     0          
O        O      0.843800000000     0.044900000000     0.035700000000     0          
O        O      0.814600000000     0.008700000000     0.474500000000     0          
T        Si     0.818100000000     0.049500000000     0.497000000000     0          
O        O      0.906200000000     0.455100000000     0.285700000000     0          
O        O      0.935400000000     0.491300000000     0.224500000000     0          
T        Si     0.931900000000     0.450500000000     0.247000000000     0          
O        O      0.589300000000     0.169900000000     0.531200000000     0          
O        O      0.650500000000     0.133700000000     0.560400000000     0          
T        Si     0.628000000000     0.174500000000     0.556900000000     0          
O        O      0.955100000000     0.464300000000     0.656200000000     0          
O        O      0.991300000000     0.025500000000     0.685400000000     0          
T        Si     0.950500000000     0.003000000000     0.681900000000     0          
O        O      0.660700000000     0.330100000000     0.781200000000     0          
O        O      0.599500000000     0.366300000000     0.810400000000     0          
T        Si     0.622000000000     0.325500000000     0.806900000000     0          
O        O      0.794900000000     0.035700000000     0.906200000000     0          
O        O      0.758700000000     0.474500000000     0.935400000000     0          
T        Si     0.799500000000     0.497000000000     0.931900000000     0          
O        O      0.589300000000     0.330100000000     0.718800000000     0          
O        O      0.650500000000     0.366300000000     0.689600000000     0          
T        Si     0.628000000000     0.325500000000     0.693100000000     0          
O        O      0.794900000000     0.464300000000     0.843800000000     0          
O        O      0.758700000000     0.025500000000     0.814600000000     0          
T        Si     0.799500000000     0.003000000000     0.818100000000     0          
O        O      0.660700000000     0.169900000000     0.968800000000     0          
O        O      0.599500000000     0.133700000000     0.939600000000     0          
T        Si     0.622000000000     0.174500000000     0.943100000000     0          
O        O      0.955100000000     0.035700000000     0.593800000000     0          
O        O      0.991300000000     0.474500000000     0.564600000000     0          
T        Si     0.950500000000     0.497000000000     0.568100000000     0          
O        O      0.531200000000     0.089300000000     0.669900000000     0          
O        O      0.560400000000     0.150500000000     0.633700000000     0          
T        Si     0.556900000000     0.128000000000     0.674500000000     0          
O        O      0.535700000000     0.406200000000     0.794900000000     0          
O        O      0.974500000000     0.435400000000     0.758700000000     0          
T        Si     0.997000000000     0.431900000000     0.799500000000     0          
O        O      0.718800000000     0.410700000000     0.919900000000     0          
O        O      0.689600000000     0.349500000000     0.883700000000     0          
T        Si     0.693100000000     0.372000000000     0.924500000000     0          
O        O      0.714300000000     0.093800000000     0.544900000000     0          
O        O      0.775500000000     0.064600000000     0.508700000000     0          
T        Si     0.753000000000     0.068100000000     0.549500000000     0          
O        O      0.531200000000     0.410700000000     0.580100000000     0          
O        O      0.560400000000     0.349500000000     0.616300000000     0          
T        Si     0.556900000000     0.372000000000     0.575500000000     0          
O        O      0.714300000000     0.406200000000     0.705100000000     0          
O        O      0.775500000000     0.435400000000     0.741300000000     0          
T        Si     0.753000000000     0.431900000000     0.700500000000     0          
O        O      0.718800000000     0.089300000000     0.830100000000     0          
O        O      0.689600000000     0.150500000000     0.866300000000     0          
T        Si     0.693100000000     0.128000000000     0.825500000000     0          
O        O      0.535700000000     0.093800000000     0.955100000000     0          
O        O      0.974500000000     0.064600000000     0.991300000000     0          
T        Si     0.997000000000     0.068100000000     0.950500000000     0          
O        O      0.669900000000     0.031200000000     0.589300000000     0          
O        O      0.633700000000     0.060400000000     0.650500000000     0          
T        Si     0.674500000000     0.056900000000     0.628000000000     0          
O        O      0.919900000000     0.218800000000     0.910700000000     0          
O        O      0.883700000000     0.189600000000     0.849500000000     0          
T        Si     0.924500000000     0.193100000000     0.872000000000     0          
O        O      0.906200000000     0.294900000000     0.535700000000     0          
O        O      0.935400000000     0.258700000000     0.974500000000     0          
T        Si     0.931900000000     0.299500000000     0.997000000000     0          
O        O      0.830100000000     0.281200000000     0.660700000000     0          
O        O      0.866300000000     0.310400000000     0.599500000000     0          
T        Si     0.825500000000     0.306900000000     0.622000000000     0          
O        O      0.593800000000     0.455100000000     0.535700000000     0          
O        O      0.564600000000     0.491300000000     0.974500000000     0          
T        Si     0.568100000000     0.450500000000     0.997000000000     0          
O        O      0.580100000000     0.468800000000     0.839300000000     0          
O        O      0.616300000000     0.439600000000     0.900500000000     0          
T        Si     0.575500000000     0.443100000000     0.878000000000     0          
O        O      0.906200000000     0.205100000000     0.714300000000     0          
O        O      0.935400000000     0.241300000000     0.775500000000     0          
T        Si     0.931900000000     0.200500000000     0.753000000000     0          
O        O      0.843800000000     0.294900000000     0.964300000000     0          
O        O      0.814600000000     0.258700000000     0.525500000000     0          
T        Si     0.818100000000     0.299500000000     0.503000000000     0          
O        O      0.910700000000     0.330100000000     0.968800000000     0          
O        O      0.849500000000     0.366300000000     0.939600000000     0          
T        Si     0.872000000000     0.325500000000     0.943100000000     0          
O        O      0.544900000000     0.035700000000     0.843800000000     0          
O        O      0.508700000000     0.474500000000     0.814600000000     0          
T        Si     0.549500000000     0.497000000000     0.818100000000     0          
O        O      0.839300000000     0.169900000000     0.718800000000     0          
O        O      0.900500000000     0.133700000000     0.689600000000     0          
T        Si     0.878000000000     0.174500000000     0.693100000000     0          
O        O      0.705100000000     0.464300000000     0.593800000000     0          
O        O      0.741300000000     0.025500000000     0.564600000000     0          
T        Si     0.700500000000     0.003000000000     0.568100000000     0          
O        O      0.910700000000     0.169900000000     0.781200000000     0          
O        O      0.849500000000     0.133700000000     0.810400000000     0          
T        Si     0.872000000000     0.174500000000     0.806900000000     0          
O        O      0.705100000000     0.035700000000     0.656200000000     0          
O        O      0.741300000000     0.474500000000     0.685400000000     0          
T        Si     0.700500000000     0.497000000000     0.681900000000     0          
O        O      0.839300000000     0.330100000000     0.531200000000     0          
O        O      0.900500000000     0.366300000000     0.560400000000     0          
T        Si     0.878000000000     0.325500000000     0.556900000000     0          
O        O      0.544900000000     0.464300000000     0.906200000000     0          
O        O      0.508700000000     0.025500000000     0.935400000000     0          
T        Si     0.549500000000     0.003000000000     0.931900000000     0          
O        O      0.968800000000     0.410700000000     0.830100000000     0          
O        O      0.939600000000     0.349500000000     0.866300000000     0          
T        Si     0.943100000000     0.372000000000     0.825500000000     0          
O        O      0.964300000000     0.093800000000     0.705100000000     0          
O        O      0.525500000000     0.064600000000     0.741300000000     0          
T        Si     0.503000000000     0.068100000000     0.700500000000     0          
O        O      0.781200000000     0.089300000000     0.580100000000     0          
O        O      0.810400000000     0.150500000000     0.616300000000     0          
T        Si     0.806900000000     0.128000000000     0.575500000000     0          
O        O      0.785700000000     0.406200000000     0.955100000000     0          
O        O      0.724500000000     0.435400000000     0.991300000000     0          
T        Si     0.747000000000     0.431900000000     0.950500000000     0          
O        O      0.968800000000     0.089300000000     0.919900000000     0          
O        O      0.939600000000     0.150500000000     0.883700000000     0          
T        Si     0.943100000000     0.128000000000     0.924500000000     0          
O        O      0.785700000000     0.093800000000     0.794900000000     0          
O        O      0.724500000000     0.064600000000     0.758700000000     0          
T        Si     0.747000000000     0.068100000000     0.799500000000     0          
O        O      0.781200000000     0.410700000000     0.669900000000     0          
O        O      0.810400000000     0.349500000000     0.633700000000     0          
T        Si     0.806900000000     0.372000000000     0.674500000000     0          
O        O      0.964300000000     0.406200000000     0.544900000000     0          
O        O      0.525500000000     0.435400000000     0.508700000000     0          
T        Si     0.503000000000     0.431900000000     0.549500000000     0          
O        O      0.830100000000     0.468800000000     0.910700000000     0          
O        O      0.866300000000     0.439600000000     0.849500000000     0          
T        Si     0.825500000000     0.443100000000     0.872000000000     0          
O        O      0.580100000000     0.281200000000     0.589300000000     0          
O        O      0.616300000000     0.310400000000     0.650500000000     0          
T        Si     0.575500000000     0.306900000000     0.628000000000     0          
O        O      0.593800000000     0.205100000000     0.964300000000     0          
O        O      0.564600000000     0.241300000000     0.525500000000     0          
T        Si     0.568100000000     0.200500000000     0.503000000000     0          
O        O      0.669900000000     0.218800000000     0.839300000000     0          
O        O      0.633700000000     0.189600000000     0.900500000000     0          
T        Si     0.674500000000     0.193100000000     0.878000000000     0          
O        O      0.906200000000     0.044900000000     0.964300000000     0          
O        O      0.935400000000     0.008700000000     0.525500000000     0          
T        Si     0.931900000000     0.049500000000     0.503000000000     0          
O        O      0.919900000000     0.031200000000     0.660700000000     0          
O        O      0.883700000000     0.060400000000     0.599500000000     0          
T        Si     0.924500000000     0.056900000000     0.622000000000     0          
O        O      0.593800000000     0.294900000000     0.785700000000     0          
O        O      0.564600000000     0.258700000000     0.724500000000     0          
T        Si     0.568100000000     0.299500000000     0.747000000000     0          
O        O      0.656200000000     0.205100000000     0.535700000000     0          
O        O      0.685400000000     0.241300000000     0.974500000000     0          
T        Si     0.681900000000     0.200500000000     0.997000000000     0          
O        O      0.839300000000     0.419900000000     0.781200000000     0          
O        O      0.900500000000     0.383700000000     0.810400000000     0          
T        Si     0.878000000000     0.424500000000     0.806900000000     0          
O        O      0.705100000000     0.214300000000     0.906200000000     0          
O        O      0.741300000000     0.275500000000     0.935400000000     0          
T        Si     0.700500000000     0.253000000000     0.931900000000     0          
O        O      0.910700000000     0.080100000000     0.531200000000     0          
O        O      0.849500000000     0.116300000000     0.560400000000     0          
T        Si     0.872000000000     0.075500000000     0.556900000000     0          
O        O      0.544900000000     0.285700000000     0.656200000000     0          
O        O      0.508700000000     0.224500000000     0.685400000000     0          
T        Si     0.549500000000     0.247000000000     0.681900000000     0          
O        O      0.839300000000     0.080100000000     0.968800000000     0          
O        O      0.900500000000     0.116300000000     0.939600000000     0          
T        Si     0.878000000000     0.075500000000     0.943100000000     0          
O        O      0.544900000000     0.214300000000     0.593800000000     0          
O        O      0.508700000000     0.275500000000     0.564600000000     0          
T        Si     0.549500000000     0.253000000000     0.568100000000     0          
O        O      0.910700000000     0.419900000000     0.718800000000     0          
O        O      0.849500000000     0.383700000000     0.689600000000     0          
T        Si     0.872000000000     0.424500000000     0.693100000000     0          
O        O      0.705100000000     0.285700000000     0.843800000000     0          
O        O      0.741300000000     0.224500000000     0.814600000000     0          
T        Si     0.700500000000     0.247000000000     0.818100000000     0          
O        O      0.781200000000     0.339300000000     0.919900000000     0          
O        O      0.810400000000     0.400500000000     0.883700000000     0          
T        Si     0.806900000000     0.378000000000     0.924500000000     0          
O        O      0.785700000000     0.156200000000     0.544900000000     0          
O        O      0.724500000000     0.185400000000     0.508700000000     0          
T        Si     0.747000000000     0.181900000000     0.549500000000     0          
O        O      0.968800000000     0.160700000000     0.669900000000     0          
O        O      0.939600000000     0.099500000000     0.633700000000     0          
T        Si     0.943100000000     0.122000000000     0.674500000000     0          
O        O      0.964300000000     0.343800000000     0.794900000000     0          
O        O      0.525500000000     0.314600000000     0.758700000000     0          
T        Si     0.503000000000     0.318100000000     0.799500000000     0          
O        O      0.781200000000     0.160700000000     0.830100000000     0          
O        O      0.810400000000     0.099500000000     0.866300000000     0          
T        Si     0.806900000000     0.122000000000     0.825500000000     0          
O        O      0.964300000000     0.156200000000     0.955100000000     0          
O        O      0.525500000000     0.185400000000     0.991300000000     0          
T        Si     0.503000000000     0.181900000000     0.950500000000     0          
O        O      0.968800000000     0.339300000000     0.580100000000     0          
O        O      0.939600000000     0.400500000000     0.616300000000     0          
T        Si     0.943100000000     0.378000000000     0.575500000000     0          
O        O      0.785700000000     0.343800000000     0.705100000000     0          
O        O      0.724500000000     0.314600000000     0.741300000000     0          
T        Si     0.747000000000     0.318100000000     0.700500000000     0          
O        O      0.919900000000     0.281200000000     0.839300000000     0          
O        O      0.883700000000     0.310400000000     0.900500000000     0          
T        Si     0.924500000000     0.306900000000     0.878000000000     0          
O        O      0.669900000000     0.468800000000     0.660700000000     0          
O        O      0.633700000000     0.439600000000     0.599500000000     0          
T        Si     0.674500000000     0.443100000000     0.622000000000     0          
O        O      0.656200000000     0.044900000000     0.785700000000     0          
O        O      0.685400000000     0.008700000000     0.724500000000     0          
T        Si     0.681900000000     0.049500000000     0.747000000000     0          
O        O      0.580100000000     0.031200000000     0.910700000000     0          
O        O      0.616300000000     0.060400000000     0.849500000000     0          
T        Si     0.575500000000     0.056900000000     0.872000000000     0          
O        O      0.843800000000     0.205100000000     0.785700000000     0          
O        O      0.814600000000     0.241300000000     0.724500000000     0          
T        Si     0.818100000000     0.200500000000     0.747000000000     0          
O        O      0.830100000000     0.218800000000     0.589300000000     0          
O        O      0.866300000000     0.189600000000     0.650500000000     0          
T        Si     0.825500000000     0.193100000000     0.628000000000     0          
O        O      0.656200000000     0.455100000000     0.964300000000     0          
O        O      0.685400000000     0.491300000000     0.525500000000     0          
T        Si     0.681900000000     0.450500000000     0.503000000000     0          
O        O      0.593800000000     0.044900000000     0.714300000000     0          
O        O      0.564600000000     0.008700000000     0.775500000000     0          
T        Si     0.568100000000     0.049500000000     0.753000000000     0          
O        O      0.660700000000     0.080100000000     0.718800000000     0          
O        O      0.599500000000     0.116300000000     0.689600000000     0          
T        Si     0.622000000000     0.075500000000     0.693100000000     0          
O        O      0.794900000000     0.285700000000     0.593800000000     0          
O        O      0.758700000000     0.224500000000     0.564600000000     0          
T        Si     0.799500000000     0.247000000000     0.568100000000     0          
O        O      0.589300000000     0.419900000000     0.968800000000     0          
O        O      0.650500000000     0.383700000000     0.939600000000     0          
T        Si     0.628000000000     0.424500000000     0.943100000000     0          
O        O      0.955100000000     0.214300000000     0.843800000000     0          
O        O      0.991300000000     0.275500000000     0.814600000000     0          
T        Si     0.950500000000     0.253000000000     0.818100000000     0          
O        O      0.660700000000     0.419900000000     0.531200000000     0          
O        O      0.599500000000     0.383700000000     0.560400000000     0          
T        Si     0.622000000000     0.424500000000     0.556900000000     0          
O        O      0.955100000000     0.285700000000     0.906200000000     0          
O        O      0.991300000000     0.224500000000     0.935400000000     0          
T        Si     0.950500000000     0.247000000000     0.931900000000     0          
O        O      0.589300000000     0.080100000000     0.781200000000     0          
O        O      0.650500000000     0.116300000000     0.810400000000     0          
T        Si     0.628000000000     0.075500000000     0.806900000000     0          
O        O      0.794900000000     0.214300000000     0.656200000000     0          
O        O      0.758700000000     0.275500000000     0.685400000000     0          
T        Si     0.799500000000     0.253000000000     0.681900000000     0          
O        O      0.718800000000     0.160700000000     0.580100000000     0          
O        O      0.689600000000     0.099500000000     0.616300000000     0          
T        Si     0.693100000000     0.122000000000     0.575500000000     0          
O        O      0.714300000000     0.343800000000     0.955100000000     0          
O        O      0.775500000000     0.314600000000     0.991300000000     0          
T        Si     0.753000000000     0.318100000000     0.950500000000     0          
O        O      0.531200000000     0.339300000000     0.830100000000     0          
O        O      0.560400000000     0.400500000000     0.866300000000     0          
T        Si     0.556900000000     0.378000000000     0.825500000000     0          
O        O      0.535700000000     0.156200000000     0.705100000000     0          
O        O      0.974500000000     0.185400000000     0.741300000000     0          
T        Si     0.997000000000     0.181900000000     0.700500000000     0          
O        O      0.718800000000     0.339300000000     0.669900000000     0          
O        O      0.689600000000     0.400500000000     0.633700000000     0          
T        Si     0.693100000000     0.378000000000     0.674500000000     0          
O        O      0.535700000000     0.343800000000     0.544900000000     0          
O        O      0.974500000000     0.314600000000     0.508700000000     0          
T        Si     0.997000000000     0.318100000000     0.549500000000     0          
O        O      0.531200000000     0.160700000000     0.919900000000     0          
O        O      0.560400000000     0.099500000000     0.883700000000     0          
T        Si     0.556900000000     0.122000000000     0.924500000000     0          
O        O      0.714300000000     0.156200000000     0.794900000000     0          
O        O      0.775500000000     0.185400000000     0.758700000000     0          
T        Si     0.753000000000     0.181900000000     0.799500000000     0          
O        O      0.580100000000     0.218800000000     0.660700000000     0          
O        O      0.616300000000     0.189600000000     0.599500000000     0          
T        Si     0.575500000000     0.193100000000     0.622000000000     0          
O        O      0.830100000000     0.031200000000     0.839300000000     0          
O        O      0.866300000000     0.060400000000     0.900500000000     0          
T        Si     0.825500000000     0.056900000000     0.878000000000     0          
O        O      0.843800000000     0.455100000000     0.714300000000     0          
O        O      0.814600000000     0.491300000000     0.775500000000     0          
T        Si     0.818100000000     0.450500000000     0.753000000000     0          
O        O      0.919900000000     0.468800000000     0.589300000000     0          
O        O      0.883700000000     0.439600000000     0.650500000000     0          
T        Si     0.924500000000     0.443100000000     0.628000000000     0          
O        O      0.656200000000     0.294900000000     0.714300000000     0          
O        O      0.685400000000     0.258700000000     0.775500000000     0          
T        Si     0.681900000000     0.299500000000     0.753000000000     0          
O        O      0.669900000000     0.281200000000     0.910700000000     0          
O        O      0.633700000000     0.310400000000     0.849500000000     0          
T        Si     0.674500000000     0.306900000000     0.872000000000     0          
O        O      0.843800000000     0.044900000000     0.535700000000     0          
O        O      0.814600000000     0.008700000000     0.974500000000     0          
T        Si     0.818100000000     0.049500000000     0.997000000000     0          
O        O      0.906200000000     0.455100000000     0.785700000000     0          
O        O      0.935400000000     0.491300000000     0.724500000000     0          
T        Si     0.931900000000     0.450500000000     0.747000000000     0          
O        O      0.589300000000     0.669900000000     0.031200000000     0          
O        O      0.650500000000     0.633700000000     0.060400000000     0          
T        Si     0.628000000000     0.674500000000     0.056900000000     0          
O        O      0.955100000000     0.964300000000     0.156200000000     0          
O        O      0.991300000000     0.525500000000     0.185400000000     0          
T        Si     0.950500000000     0.503000000000     0.181900000000     0          
O        O      0.660700000000     0.830100000000     0.281200000000     0          
O        O      0.599500000000     0.866300000000     0.310400000000     0          
T        Si     0.622000000000     0.825500000000     0.306900000000     0          
O        O      0.794900000000     0.535700000000     0.406200000000     0          
O        O      0.758700000000     0.974500000000     0.435400000000     0          
T        Si     0.799500000000     0.997000000000     0.431900000000     0          
O        O      0.589300000000     0.830100000000     0.218800000000     0          
O        O      0.650500000000     0.866300000000     0.189600000000     0          
T        Si     0.628000000000     0.825500000000     0.193100000000     0          
O        O      0.794900000000     0.964300000000     0.343800000000     0          
O        O      0.758700000000     0.525500000000     0.314600000000     0          
T        Si     0.799500000000     0.503000000000     0.318100000000     0          
O        O      0.660700000000     0.669900000000     0.468800000000     0          
O        O      0.599500000000     0.633700000000     0.439600000000     0          
T        Si     0.622000000000     0.674500000000     0.443100000000     0          
O        O      0.955100000000     0.535700000000     0.093800000000     0          
O        O      0.991300000000     0.974500000000     0.064600000000     0          
T        Si     0.950500000000     0.997000000000     0.068100000000     0          
O        O      0.531200000000     0.589300000000     0.169900000000     0          
O        O      0.560400000000     0.650500000000     0.133700000000     0          
T        Si     0.556900000000     0.628000000000     0.174500000000     0          
O        O      0.535700000000     0.906200000000     0.294900000000     0          
O        O      0.974500000000     0.935400000000     0.258700000000     0          
T        Si     0.997000000000     0.931900000000     0.299500000000     0          
O        O      0.718800000000     0.910700000000     0.419900000000     0          
O        O      0.689600000000     0.849500000000     0.383700000000     0          
T        Si     0.693100000000     0.872000000000     0.424500000000     0          
O        O      0.714300000000     0.593800000000     0.044900000000     0          
O        O      0.775500000000     0.564600000000     0.008700000000     0          
T        Si     0.753000000000     0.568100000000     0.049500000000     0          
O        O      0.531200000000     0.910700000000     0.080100000000     0          
O        O      0.560400000000     0.849500000000     0.116300000000     0          
T        Si     0.556900000000     0.872000000000     0.075500000000     0          
O        O      0.714300000000     0.906200000000     0.205100000000     0          
O        O      0.775500000000     0.935400000000     0.241300000000     0          
T        Si     0.753000000000     0.931900000000     0.200500000000     0          
O        O      0.718800000000     0.589300000000     0.330100000000     0          
O        O      0.689600000000     0.650500000000     0.366300000000     0          
T        Si     0.693100000000     0.628000000000     0.325500000000     0          
O        O      0.535700000000     0.593800000000     0.455100000000     0          
O        O      0.974500000000     0.564600000000     0.491300000000     0          
T        Si     0.997000000000     0.568100000000     0.450500000000     0          
O        O      0.669900000000     0.531200000000     0.089300000000     0          
O        O      0.633700000000     0.560400000000     0.150500000000     0          
T        Si     0.674500000000     0.556900000000     0.128000000000     0          
O        O      0.919900000000     0.718800000000     0.410700000000     0          
O        O      0.883700000000     0.689600000000     0.349500000000     0          
T        Si     0.924500000000     0.693100000000     0.372000000000     0          
O        O      0.906200000000     0.794900000000     0.035700000000     0          
O        O      0.935400000000     0.758700000000     0.474500000000     0          
T        Si     0.931900000000     0.799500000000     0.497000000000     0          
O        O      0.830100000000     0.781200000000     0.160700000000     0          
O        O      0.866300000000     0.810400000000     0.099500000000     0          
T        Si     0.825500000000     0.806900000000     0.122000000000     0          
O        O      0.593800000000     0.955100000000     0.035700000000     0          
O        O      0.564600000000     0.991300000000     0.474500000000     0          
T        Si     0.568100000000     0.950500000000     0.497000000000     0          
O        O      0.580100000000     0.968800000000     0.339300000000     0          
O        O      0.616300000000     0.939600000000     0.400500000000     0          
T        Si     0.575500000000     0.943100000000     0.378000000000     0          
O        O      0.906200000000     0.705100000000     0.214300000000     0          
O        O      0.935400000000     0.741300000000     0.275500000000     0          
T        Si     0.931900000000     0.700500000000     0.253000000000     0          
O        O      0.843800000000     0.794900000000     0.464300000000     0          
O        O      0.814600000000     0.758700000000     0.025500000000     0          
T        Si     0.818100000000     0.799500000000     0.003000000000     0          
O        O      0.910700000000     0.830100000000     0.468800000000     0          
O        O      0.849500000000     0.866300000000     0.439600000000     0          
T        Si     0.872000000000     0.825500000000     0.443100000000     0          
O        O      0.544900000000     0.535700000000     0.343800000000     0          
O        O      0.508700000000     0.974500000000     0.314600000000     0          
T        Si     0.549500000000     0.997000000000     0.318100000000     0          
O        O      0.839300000000     0.669900000000     0.218800000000     0          
O        O      0.900500000000     0.633700000000     0.189600000000     0          
T        Si     0.878000000000     0.674500000000     0.193100000000     0          
O        O      0.705100000000     0.964300000000     0.093800000000     0          
O        O      0.741300000000     0.525500000000     0.064600000000     0          
T        Si     0.700500000000     0.503000000000     0.068100000000     0          
O        O      0.910700000000     0.669900000000     0.281200000000     0          
O        O      0.849500000000     0.633700000000     0.310400000000     0          
T        Si     0.872000000000     0.674500000000     0.306900000000     0          
O        O      0.705100000000     0.535700000000     0.156200000000     0          
O        O      0.741300000000     0.974500000000     0.185400000000     0          
T        Si     0.700500000000     0.997000000000     0.181900000000     0          
O        O      0.839300000000     0.830100000000     0.031200000000     0          
O        O      0.900500000000     0.866300000000     0.060400000000     0          
T        Si     0.878000000000     0.825500000000     0.056900000000     0          
O        O      0.544900000000     0.964300000000     0.406200000000     0          
O        O      0.508700000000     0.525500000000     0.435400000000     0          
T        Si     0.549500000000     0.503000000000     0.431900000000     0          
O        O      0.968800000000     0.910700000000     0.330100000000     0          
O        O      0.939600000000     0.849500000000     0.366300000000     0          
T        Si     0.943100000000     0.872000000000     0.325500000000     0          
O        O      0.964300000000     0.593800000000     0.205100000000     0          
O        O      0.525500000000     0.564600000000     0.241300000000     0          
T        Si     0.503000000000     0.568100000000     0.200500000000     0          
O        O      0.781200000000     0.589300000000     0.080100000000     0          
O        O      0.810400000000     0.650500000000     0.116300000000     0          
T        Si     0.806900000000     0.628000000000     0.075500000000     0          
O        O      0.785700000000     0.906200000000     0.455100000000     0          
O        O      0.724500000000     0.935400000000     0.491300000000     0          
T        Si     0.747000000000     0.931900000000     0.450500000000     0          
O        O      0.968800000000     0.589300000000     0.419900000000     0          
O        O      0.939600000000     0.650500000000     0.383700000000     0          
T        Si     0.943100000000     0.628000000000     0.424500000000     0          
O        O      0.785700000000     0.593800000000     0.294900000000     0          
O        O      0.724500000000     0.564600000000     0.258700000000     0          
T        Si     0.747000000000     0.568100000000     0.299500000000     0          
O        O      0.781200000000     0.910700000000     0.169900000000     0          
O        O      0.810400000000     0.849500000000     0.133700000000     0          
T        Si     0.806900000000     0.872000000000     0.174500000000     0          
O        O      0.964300000000     0.906200000000     0.044900000000     0          
O        O      0.525500000000     0.935400000000     0.008700000000     0          
T        Si     0.503000000000     0.931900000000     0.049500000000     0          
O        O      0.830100000000     0.968800000000     0.410700000000     0          
O        O      0.866300000000     0.939600000000     0.349500000000     0          
T        Si     0.825500000000     0.943100000000     0.372000000000     0          
O        O      0.580100000000     0.781200000000     0.089300000000     0          
O        O      0.616300000000     0.810400000000     0.150500000000     0          
T        Si     0.575500000000     0.806900000000     0.128000000000     0          
O        O      0.593800000000     0.705100000000     0.464300000000     0          
O        O      0.564600000000     0.741300000000     0.025500000000     0          
T        Si     0.568100000000     0.700500000000     0.003000000000     0          
O        O      0.669900000000     0.718800000000     0.339300000000     0          
O        O      0.633700000000     0.689600000000     0.400500000000     0          
T        Si     0.674500000000     0.693100000000     0.378000000000     0          
O        O      0.906200000000     0.544900000000     0.464300000000     0          
O        O      0.935400000000     0.508700000000     0.025500000000     0          
T        Si     0.931900000000     0.549500000000     0.003000000000     0          
O        O      0.919900000000     0.531200000000     0.160700000000     0          
O        O      0.883700000000     0.560400000000     0.099500000000     0          
T        Si     0.924500000000     0.556900000000     0.122000000000     0          
O        O      0.593800000000     0.794900000000     0.285700000000     0          
O        O      0.564600000000     0.758700000000     0.224500000000     0          
T        Si     0.568100000000     0.799500000000     0.247000000000     0          
O        O      0.656200000000     0.705100000000     0.035700000000     0          
O        O      0.685400000000     0.741300000000     0.474500000000     0          
T        Si     0.681900000000     0.700500000000     0.497000000000     0          
O        O      0.839300000000     0.919900000000     0.281200000000     0          
O        O      0.900500000000     0.883700000000     0.310400000000     0          
T        Si     0.878000000000     0.924500000000     0.306900000000     0          
O        O      0.705100000000     0.714300000000     0.406200000000     0          
O        O      0.741300000000     0.775500000000     0.435400000000     0          
T        Si     0.700500000000     0.753000000000     0.431900000000     0          
O        O      0.910700000000     0.580100000000     0.031200000000     0          
O        O      0.849500000000     0.616300000000     0.060400000000     0          
T        Si     0.872000000000     0.575500000000     0.056900000000     0          
O        O      0.544900000000     0.785700000000     0.156200000000     0          
O        O      0.508700000000     0.724500000000     0.185400000000     0          
T        Si     0.549500000000     0.747000000000     0.181900000000     0          
O        O      0.839300000000     0.580100000000     0.468800000000     0          
O        O      0.900500000000     0.616300000000     0.439600000000     0          
T        Si     0.878000000000     0.575500000000     0.443100000000     0          
O        O      0.544900000000     0.714300000000     0.093800000000     0          
O        O      0.508700000000     0.775500000000     0.064600000000     0          
T        Si     0.549500000000     0.753000000000     0.068100000000     0          
O        O      0.910700000000     0.919900000000     0.218800000000     0          
O        O      0.849500000000     0.883700000000     0.189600000000     0          
T        Si     0.872000000000     0.924500000000     0.193100000000     0          
O        O      0.705100000000     0.785700000000     0.343800000000     0          
O        O      0.741300000000     0.724500000000     0.314600000000     0          
T        Si     0.700500000000     0.747000000000     0.318100000000     0          
O        O      0.781200000000     0.839300000000     0.419900000000     0          
O        O      0.810400000000     0.900500000000     0.383700000000     0          
T        Si     0.806900000000     0.878000000000     0.424500000000     0          
O        O      0.785700000000     0.656200000000     0.044900000000     0          
O        O      0.724500000000     0.685400000000     0.008700000000     0          
T        Si     0.747000000000     0.681900000000     0.049500000000     0          
O        O      0.968800000000     0.660700000000     0.169900000000     0          
O        O      0.939600000000     0.599500000000     0.133700000000     0          
T        Si     0.943100000000     0.622000000000     0.174500000000     0          
O        O      0.964300000000     0.843800000000     0.294900000000     0          
O        O      0.525500000000     0.814600000000     0.258700000000     0          
T        Si     0.503000000000     0.818100000000     0.299500000000     0          
O        O      0.781200000000     0.660700000000     0.330100000000     0          
O        O      0.810400000000     0.599500000000     0.366300000000     0          
T        Si     0.806900000000     0.622000000000     0.325500000000     0          
O        O      0.964300000000     0.656200000000     0.455100000000     0          
O        O      0.525500000000     0.685400000000     0.491300000000     0          
T        Si     0.503000000000     0.681900000000     0.450500000000     0          
O        O      0.968800000000     0.839300000000     0.080100000000     0          
O        O      0.939600000000     0.900500000000     0.116300000000     0          
T        Si     0.943100000000     0.878000000000     0.075500000000     0          
O        O      0.785700000000     0.843800000000     0.205100000000     0          
O        O      0.724500000000     0.814600000000     0.241300000000     0          
T        Si     0.747000000000     0.818100000000     0.200500000000     0          
O        O      0.919900000000     0.781200000000     0.339300000000     0          
O        O      0.883700000000     0.810400000000     0.400500000000     0          
T        Si     0.924500000000     0.806900000000     0.378000000000     0          
O        O      0.669900000000     0.968800000000     0.160700000000     0          
O        O      0.633700000000     0.939600000000     0.099500000000     0          
T        Si     0.674500000000     0.943100000000     0.122000000000     0          
O        O      0.656200000000     0.544900000000     0.285700000000     0          
O        O      0.685400000000     0.508700000000     0.224500000000     0          
T        Si     0.681900000000     0.549500000000     0.247000000000     0          
O        O      0.580100000000     0.531200000000     0.410700000000     0          
O        O      0.616300000000     0.560400000000     0.349500000000     0          
T        Si     0.575500000000     0.556900000000     0.372000000000     0          
O        O      0.843800000000     0.705100000000     0.285700000000     0          
O        O      0.814600000000     0.741300000000     0.224500000000     0          
T        Si     0.818100000000     0.700500000000     0.247000000000     0          
O        O      0.830100000000     0.718800000000     0.089300000000     0          
O        O      0.866300000000     0.689600000000     0.150500000000     0          
T        Si     0.825500000000     0.693100000000     0.128000000000     0          
O        O      0.656200000000     0.955100000000     0.464300000000     0          
O        O      0.685400000000     0.991300000000     0.025500000000     0          
T        Si     0.681900000000     0.950500000000     0.003000000000     0          
O        O      0.593800000000     0.544900000000     0.214300000000     0          
O        O      0.564600000000     0.508700000000     0.275500000000     0          
T        Si     0.568100000000     0.549500000000     0.253000000000     0          
O        O      0.660700000000     0.580100000000     0.218800000000     0          
O        O      0.599500000000     0.616300000000     0.189600000000     0          
T        Si     0.622000000000     0.575500000000     0.193100000000     0          
O        O      0.794900000000     0.785700000000     0.093800000000     0          
O        O      0.758700000000     0.724500000000     0.064600000000     0          
T        Si     0.799500000000     0.747000000000     0.068100000000     0          
O        O      0.589300000000     0.919900000000     0.468800000000     0          
O        O      0.650500000000     0.883700000000     0.439600000000     0          
T        Si     0.628000000000     0.924500000000     0.443100000000     0          
O        O      0.955100000000     0.714300000000     0.343800000000     0          
O        O      0.991300000000     0.775500000000     0.314600000000     0          
T        Si     0.950500000000     0.753000000000     0.318100000000     0          
O        O      0.660700000000     0.919900000000     0.031200000000     0          
O        O      0.599500000000     0.883700000000     0.060400000000     0          
T        Si     0.622000000000     0.924500000000     0.056900000000     0          
O        O      0.955100000000     0.785700000000     0.406200000000     0          
O        O      0.991300000000     0.724500000000     0.435400000000     0          
T        Si     0.950500000000     0.747000000000     0.431900000000     0          
O        O      0.589300000000     0.580100000000     0.281200000000     0          
O        O      0.650500000000     0.616300000000     0.310400000000     0          
T        Si     0.628000000000     0.575500000000     0.306900000000     0          
O        O      0.794900000000     0.714300000000     0.156200000000     0          
O        O      0.758700000000     0.775500000000     0.185400000000     0          
T        Si     0.799500000000     0.753000000000     0.181900000000     0          
O        O      0.718800000000     0.660700000000     0.080100000000     0          
O        O      0.689600000000     0.599500000000     0.116300000000     0          
T        Si     0.693100000000     0.622000000000     0.075500000000     0          
O        O      0.714300000000     0.843800000000     0.455100000000     0          
O        O      0.775500000000     0.814600000000     0.491300000000     0          
T        Si     0.753000000000     0.818100000000     0.450500000000     0          
O        O      0.531200000000     0.839300000000     0.330100000000     0          
O        O      0.560400000000     0.900500000000     0.366300000000     0          
T        Si     0.556900000000     0.878000000000     0.325500000000     0          
O        O      0.535700000000     0.656200000000     0.205100000000     0          
O        O      0.974500000000     0.685400000000     0.241300000000     0          
T        Si     0.997000000000     0.681900000000     0.200500000000     0          
O        O      0.718800000000     0.839300000000     0.169900000000     0          
O        O      0.689600000000     0.900500000000     0.133700000000     0          
T        Si     0.693100000000     0.878000000000     0.174500000000     0          
O        O      0.535700000000     0.843800000000     0.044900000000     0          
O        O      0.974500000000     0.814600000000     0.008700000000     0          
T        Si     0.997000000000     0.818100000000     0.049500000000     0          
O        O      0.531200000000     0.660700000000     0.419900000000     0          
O        O      0.560400000000     0.599500000000     0.383700000000     0          
T        Si     0.556900000000     0.622000000000     0.424500000000     0          
O        O      0.714300000000     0.656200000000     0.294900000000     0          
O        O      0.775500000000     0.685400000000     0.258700000000     0          
T        Si     0.753000000000     0.681900000000     0.299500000000     0          
O        O      0.580100000000     0.718800000000     0.160700000000     0          
O        O      0.616300000000     0.689600000000     0.099500000000     0          
T        Si     0.575500000000     0.693100000000     0.122000000000     0          
O        O      0.830100000000     0.531200000000     0.339300000000     0          
O        O      0.866300000000     0.560400000000     0.400500000000     0          
T        Si     0.825500000000     0.556900000000     0.378000000000     0          
O        O      0.843800000000     0.955100000000     0.214300000000     0          
O        O      0.814600000000     0.991300000000     0.275500000000     0          
T        Si     0.818100000000     0.950500000000     0.253000000000     0          
O        O      0.919900000000     0.968800000000     0.089300000000     0          
O        O      0.883700000000     0.939600000000     0.150500000000     0          
T        Si     0.924500000000     0.943100000000     0.128000000000     0          
O        O      0.656200000000     0.794900000000     0.214300000000     0          
O        O      0.685400000000     0.758700000000     0.275500000000     0          
T        Si     0.681900000000     0.799500000000     0.253000000000     0          
O        O      0.669900000000     0.781200000000     0.410700000000     0          
O        O      0.633700000000     0.810400000000     0.349500000000     0          
T        Si     0.674500000000     0.806900000000     0.372000000000     0          
O        O      0.843800000000     0.544900000000     0.035700000000     0          
O        O      0.814600000000     0.508700000000     0.474500000000     0          
T        Si     0.818100000000     0.549500000000     0.497000000000     0          
O        O      0.906200000000     0.955100000000     0.285700000000     0          
O        O      0.935400000000     0.991300000000     0.224500000000     0          
T        Si     0.931900000000     0.950500000000     0.247000000000     0          
O        O      0.589300000000     0.669900000000     0.531200000000     0          
O        O      0.650500000000     0.633700000000     0.560400000000     0          
T        Si     0.628000000000     0.674500000000     0.556900000000     0          
O        O      0.955100000000     0.964300000000     0.656200000000     0          
O        O      0.991300000000     0.525500000000     0.685400000000     0          
T        Si     0.950500000000     0.503000000000     0.681900000000     0          
O        O      0.660700000000     0.830100000000     0.781200000000     0          
O        O      0.599500000000     0.866300000000     0.810400000000     0          
T        Si     0.622000000000     0.825500000000     0.806900000000     0          
O        O      0.794900000000     0.535700000000     0.906200000000     0          
O        O      0.758700000000     0.974500000000     0.935400000000     0          
T        Si     0.799500000000     0.997000000000     0.931900000000     0          
O        O      0.589300000000     0.830100000000     0.718800000000     0          
O        O      0.650500000000     0.866300000000     0.689600000000     0          
T        Si     0.628000000000     0.825500000000     0.693100000000     0          
O        O      0.794900000000     0.964300000000     0.843800000000     0          
O        O      0.758700000000     0.525500000000     0.814600000000     0          
T        Si     0.799500000000     0.503000000000     0.818100000000     0          
O        O      0.660700000000     0.669900000000     0.968800000000     0          
O        O      0.599500000000     0.633700000000     0.939600000000     0          
T        Si     0.622000000000     0.674500000000     0.943100000000     0          
O        O      0.955100000000     0.535700000000     0.593800000000     0          
O        O      0.991300000000     0.974500000000     0.564600000000     0          
T        Si     0.950500000000     0.997000000000     0.568100000000     0          
O        O      0.531200000000     0.589300000000     0.669900000000     0          
O        O      0.560400000000     0.650500000000     0.633700000000     0          
T        Si     0.556900000000     0.628000000000     0.674500000000     0          
O        O      0.535700000000     0.906200000000     0.794900000000     0          
O        O      0.974500000000     0.935400000000     0.758700000000     0          
T        Si     0.997000000000     0.931900000000     0.799500000000     0          
O        O      0.718800000000     0.910700000000     0.919900000000     0          
O        O      0.689600000000     0.849500000000     0.883700000000     0          
T        Si     0.693100000000     0.872000000000     0.924500000000     0          
O        O      0.714300000000     0.593800000000     0.544900000000     0          
O        O      0.775500000000     0.564600000000     0.508700000000     0          
T        Si     0.753000000000     0.568100000000     0.549500000000     0          
O        O      0.531200000000     0.910700000000     0.580100000000     0          
O        O      0.560400000000     0.849500000000     0.616300000000     0          
T        Si     0.556900000000     0.872000000000     0.575500000000     0          
O        O      0.714300000000     0.906200000000     0.705100000000     0          
O        O      0.775500000000     0.935400000000     0.741300000000     0          
T        Si     0.753000000000     0.931900000000     0.700500000000     0          
O        O      0.718800000000     0.589300000000     0.830100000000     0          
O        O      0.689600000000     0.650500000000     0.866300000000     0          
T        Si     0.693100000000     0.628000000000     0.825500000000     0          
O        O      0.535700000000     0.593800000000     0.955100000000     0          
O        O      0.974500000000     0.564600000000     0.991300000000     0          
T        Si     0.997000000000     0.568100000000     0.950500000000     0          
O        O      0.669900000000     0.531200000000     0.589300000000     0          
O        O      0.633700000000     0.560400000000     0.650500000000     0          
T        Si     0.674500000000     0.556900000000     0.628000000000     0          
O        O      0.919900000000     0.718800000000     0.910700000000     0          
O        O      0.883700000000     0.689600000000     0.849500000000     0          
T        Si     0.924500000000     0.693100000000     0.872000000000     0          
O        O      0.906200000000     0.794900000000     0.535700000000     0          
O        O      0.935400000000     0.758700000000     0.974500000000     0          
T        Si     0.931900000000     0.799500000000     0.997000000000     0          
O        O      0.830100000000     0.781200000000     0.660700000000     0          
O        O      0.866300000000     0.810400000000     0.599500000000     0          
T        Si     0.825500000000     0.806900000000     0.622000000000     0          
O        O      0.593800000000     0.955100000000     0.535700000000     0          
O        O      0.564600000000     0.991300000000     0.974500000000     0          
T        Si     0.568100000000     0.950500000000     0.997000000000     0          
O        O      0.580100000000     0.968800000000     0.839300000000     0          
O        O      0.616300000000     0.939600000000     0.900500000000     0          
T        Si     0.575500000000     0.943100000000     0.878000000000     0          
O        O      0.906200000000     0.705100000000     0.714300000000     0          
O        O      0.935400000000     0.741300000000     0.775500000000     0          
T        Si     0.931900000000     0.700500000000     0.753000000000     0          
O        O      0.843800000000     0.794900000000     0.964300000000     0          
O        O      0.814600000000     0.758700000000     0.525500000000     0          
T        Si     0.818100000000     0.799500000000     0.503000000000     0          
O        O      0.910700000000     0.830100000000     0.968800000000     0          
O        O      0.849500000000     0.866300000000     0.939600000000     0          
T        Si     0.872000000000     0.825500000000     0.943100000000     0          
O        O      0.544900000000     0.535700000000     0.843800000000     0          
O        O      0.508700000000     0.974500000000     0.814600000000     0          
T        Si     0.549500000000     0.997000000000     0.818100000000     0          
O        O      0.839300000000     0.669900000000     0.718800000000     0          
O        O      0.900500000000     0.633700000000     0.689600000000     0          
T        Si     0.878000000000     0.674500000000     0.693100000000     0          
O        O      0.705100000000     0.964300000000     0.593800000000     0          
O        O      0.741300000000     0.525500000000     0.564600000000     0          
T        Si     0.700500000000     0.503000000000     0.568100000000     0          
O        O      0.910700000000     0.669900000000     0.781200000000     0          
O        O      0.849500000000     0.633700000000     0.810400000000     0          
T        Si     0.872000000000     0.674500000000     0.806900000000     0          
O        O      0.705100000000     0.535700000000     0.656200000000     0          
O        O      0.741300000000     0.974500000000     0.685400000000     0          
T        Si     0.700500000000     0.997000000000     0.681900000000     0          
O        O      0.839300000000     0.830100000000     0.531200000000     0          
O        O      0.900500000000     0.866300000000     0.560400000000     0          
T        Si     0.878000000000     0.825500000000     0.556900000000     0          
O        O      0.544900000000     0.964300000000     0.906200000000     0          
O        O      0.508700000000     0.525500000000     0.935400000000     0          
T        Si     0.549500000000     0.503000000000     0.931900000000     0          
O        O      0.968800000000     0.910700000000     0.830100000000     0          
O        O      0.939600000000     0.849500000000     0.866300000000     0          
T        Si     0.943100000000     0.872000000000     0.825500000000     0          
O        O      0.964300000000     0.593800000000     0.705100000000     0          
O        O      0.525500000000     0.564600000000     0.741300000000     0          
T        Si     0.503000000000     0.568100000000     0.700500000000     0          
O        O      0.781200000000     0.589300000000     0.580100000000     0          
O        O      0.810400000000     0.650500000000     0.616300000000     0          
T        Si     0.806900000000     0.628000000000     0.575500000000     0          
O        O      0.785700000000     0.906200000000     0.955100000000     0          
O        O      0.724500000000     0.935400000000     0.991300000000     0          
T        Si     0.747000000000     0.931900000000     0.950500000000     0          
O        O      0.968800000000     0.589300000000     0.919900000000     0          
O        O      0.939600000000     0.650500000000     0.883700000000     0          
T        Si     0.943100000000     0.628000000000     0.924500000000     0          
O        O      0.785700000000     0.593800000000     0.794900000000     0          
O        O      0.724500000000     0.564600000000     0.758700000000     0          
T        Si     0.747000000000     0.568100000000     0.799500000000     0          
O        O      0.781200000000     0.910700000000     0.669900000000     0          
O        O      0.810400000000     0.849500000000     0.633700000000     0          
T        Si     0.806900000000     0.872000000000     0.674500000000     0          
O        O      0.964300000000     0.906200000000     0.544900000000     0          
O        O      0.525500000000     0.935400000000     0.508700000000     0          
T        Si     0.503000000000     0.931900000000     0.549500000000     0          
O        O      0.830100000000     0.968800000000     0.910700000000     0          
O        O      0.866300000000     0.939600000000     0.849500000000     0          
T        Si     0.825500000000     0.943100000000     0.872000000000     0          
O        O      0.580100000000     0.781200000000     0.589300000000     0          
O        O      0.616300000000     0.810400000000     0.650500000000     0          
T        Si     0.575500000000     0.806900000000     0.628000000000     0          
O        O      0.593800000000     0.705100000000     0.964300000000     0          
O        O      0.564600000000     0.741300000000     0.525500000000     0          
T        Si     0.568100000000     0.700500000000     0.503000000000     0          
O        O      0.669900000000     0.718800000000     0.839300000000     0          
O        O      0.633700000000     0.689600000000     0.900500000000     0          
T        Si     0.674500000000     0.693100000000     0.878000000000     0          
O        O      0.906200000000     0.544900000000     0.964300000000     0          
O        O      0.935400000000     0.508700000000     0.525500000000     0          
T        Si     0.931900000000     0.549500000000     0.503000000000     0          
O        O      0.919900000000     0.531200000000     0.660700000000     0          
O        O      0.883700000000     0.560400000000     0.599500000000     0          
T        Si     0.924500000000     0.556900000000     0.622000000000     0          
O        O      0.593800000000     0.794900000000     0.785700000000     0          
O        O      0.564600000000     0.758700000000     0.724500000000     0          
T        Si     0.568100000000     0.799500000000     0.747000000000     0          
O        O      0.656200000000     0.705100000000     0.535700000000     0          
O        O      0.685400000000     0.741300000000     0.974500000000     0          
T        Si     0.681900000000     0.700500000000     0.997000000000     0          
O        O      0.839300000000     0.919900000000     0.781200000000     0          
O        O      0.900500000000     0.883700000000     0.810400000000     0          
T        Si     0.878000000000     0.924500000000     0.806900000000     0          
O        O      0.705100000000     0.714300000000     0.906200000000     0          
O        O      0.741300000000     0.775500000000     0.935400000000     0          
T        Si     0.700500000000     0.753000000000     0.931900000000     0          
O        O      0.910700000000     0.580100000000     0.531200000000     0          
O        O      0.849500000000     0.616300000000     0.560400000000     0          
T        Si     0.872000000000     0.575500000000     0.556900000000     0          
O        O      0.544900000000     0.785700000000     0.656200000000     0          
O        O      0.508700000000     0.724500000000     0.685400000000     0          
T        Si     0.549500000000     0.747000000000     0.681900000000     0          
O        O      0.839300000000     0.580100000000     0.968800000000     0          
O        O      0.900500000000     0.616300000000     0.939600000000     0          
T        Si     0.878000000000     0.575500000000     0.943100000000     0          
O        O      0.544900000000     0.714300000000     0.593800000000     0          
O        O      0.508700000000     0.775500000000     0.564600000000     0          
T        Si     0.549500000000     0.753000000000     0.568100000000     0          
O        O      0.910700000000     0.919900000000     0.718800000000     0          
O        O      0.849500000000     0.883700000000     0.689600000000     0          
T        Si     0.872000000000     0.924500000000     0.693100000000     0          
O        O      0.705100000000     0.785700000000     0.843800000000     0          
O        O      0.741300000000     0.724500000000     0.814600000000     0          
T        Si     0.700500000000     0.747000000000     0.818100000000     0          
O        O      0.781200000000     0.839300000000     0.919900000000     0          
O        O      0.810400000000     0.900500000000     0.883700000000     0          
T        Si     0.806900000000     0.878000000000     0.924500000000     0          
O        O      0.785700000000     0.656200000000     0.544900000000     0          
O        O      0.724500000000     0.685400000000     0.508700000000     0          
T        Si     0.747000000000     0.681900000000     0.549500000000     0          
O        O      0.968800000000     0.660700000000     0.669900000000     0          
O        O      0.939600000000     0.599500000000     0.633700000000     0          
T        Si     0.943100000000     0.622000000000     0.674500000000     0          
O        O      0.964300000000     0.843800000000     0.794900000000     0          
O        O      0.525500000000     0.814600000000     0.758700000000     0          
T        Si     0.503000000000     0.818100000000     0.799500000000     0          
O        O      0.781200000000     0.660700000000     0.830100000000     0          
O        O      0.810400000000     0.599500000000     0.866300000000     0          
T        Si     0.806900000000     0.622000000000     0.825500000000     0          
O        O      0.964300000000     0.656200000000     0.955100000000     0          
O        O      0.525500000000     0.685400000000     0.991300000000     0          
T        Si     0.503000000000     0.681900000000     0.950500000000     0          
O        O      0.968800000000     0.839300000000     0.580100000000     0          
O        O      0.939600000000     0.900500000000     0.616300000000     0          
T        Si     0.943100000000     0.878000000000     0.575500000000     0          
O        O      0.785700000000     0.843800000000     0.705100000000     0          
O        O      0.724500000000     0.814600000000     0.741300000000     0          
T        Si     0.747000000000     0.818100000000     0.700500000000     0          
O        O      0.919900000000     0.781200000000     0.839300000000     0          
O        O      0.883700000000     0.810400000000     0.900500000000     0          
T        Si     0.924500000000     0.806900000000     0.878000000000     0          
O        O      0.669900000000     0.968800000000     0.660700000000     0          
O        O      0.633700000000     0.939600000000     0.599500000000     0          
T        Si     0.674500000000     0.943100000000     0.622000000000     0          
O        O      0.656200000000     0.544900000000     0.785700000000     0          
O        O      0.685400000000     0.508700000000     0.724500000000     0          
T        Si     0.681900000000     0.549500000000     0.747000000000     0          
O        O      0.580100000000     0.531200000000     0.910700000000     0          
O        O      0.616300000000     0.560400000000     0.849500000000     0          
T        Si     0.575500000000     0.556900000000     0.872000000000     0          
O        O      0.843800000000     0.705100000000     0.785700000000     0          
O        O      0.814600000000     0.741300000000     0.724500000000     0          
T        Si     0.818100000000     0.700500000000     0.747000000000     0          
O        O      0.830100000000     0.718800000000     0.589300000000     0          
O        O      0.866300000000     0.689600000000     0.650500000000     0          
T        Si     0.825500000000     0.693100000000     0.628000000000     0          
O        O      0.656200000000     0.955100000000     0.964300000000     0          
O        O      0.685400000000     0.991300000000     0.525500000000     0          
T        Si     0.681900000000     0.950500000000     0.503000000000     0          
O        O      0.593800000000     0.544900000000     0.714300000000     0          
O        O      0.564600000000     0.508700000000     0.775500000000     0          
T        Si     0.568100000000     0.549500000000     0.753000000000     0          
O        O      0.660700000000     0.580100000000     0.718800000000     0          
O        O      0.599500000000     0.616300000000     0.689600000000     0          
T        Si     0.622000000000     0.575500000000     0.693100000000     0          
O        O      0.794900000000     0.785700000000     0.593800000000     0          
O        O      0.758700000000     0.724500000000     0.564600000000     0          
T        Si     0.799500000000     0.747000000000     0.568100000000     0          
O        O      0.589300000000     0.919900000000     0.968800000000     0          
O        O      0.650500000000     0.883700000000     0.939600000000     0          
T        Si     0.628000000000     0.924500000000     0.943100000000     0          
O        O      0.955100000000     0.714300000000     0.843800000000     0          
O        O      0.991300000000     0.775500000000     0.814600000000     0          
T        Si     0.950500000000     0.753000000000     0.818100000000     0          
O        O      0.660700000000     0.919900000000     0.531200000000     0          
O        O      0.599500000000     0.883700000000     0.560400000000     0          
T        Si     0.622000000000     0.924500000000     0.556900000000     0          
O        O      0.955100000000     0.785700000000     0.906200000000     0          
O        O      0.991300000000     0.724500000000     0.935400000000     0          
T        Si     0.950500000000     0.747000000000     0.931900000000     0          
O        O      0.589300000000     0.580100000000     0.781200000000     0          
O        O      0.650500000000     0.616300000000     0.810400000000     0          
T        Si     0.628000000000     0.575500000000     0.806900000000     0          
O        O      0.794900000000     0.714300000000     0.656200000000     0          
O        O      0.758700000000     0.775500000000     0.685400000000     0          
T        Si     0.799500000000     0.753000000000     0.681900000000     0          
O        O      0.718800000000     0.660700000000     0.580100000000     0          
O        O      0.689600000000     0.599500000000     0.616300000000     0          
T        Si     0.693100000000     0.622000000000     0.575500000000     0          
O        O      0.714300000000     0.843800000000     0.955100000000     0          
O        O      0.775500000000     0.814600000000     0.991300000000     0          
T        Si     0.753000000000     0.818100000000     0.950500000000     0          
O        O      0.531200000000     0.839300000000     0.830100000000     0          
O        O      0.560400000000     0.900500000000     0.866300000000     0          
T        Si     0.556900000000     0.878000000000     0.825500000000     0          
O        O      0.535700000000     0.656200000000     0.705100000000     0          
O        O      0.974500000000     0.685400000000     0.741300000000     0          
T        Si     0.997000000000     0.681900000000     0.700500000000     0          
O        O      0.718800000000     0.839300000000     0.669900000000     0          
O        O      0.689600000000     0.900500000000     0.633700000000     0          
T        Si     0.693100000000     0.878000000000     0.674500000000     0          
O        O      0.535700000000     0.843800000000     0.544900000000     0          
O        O      0.974500000000     0.814600000000     0.508700000000     0          
T        Si     0.997000000000     0.818100000000     0.549500000000     0          
O        O      0.531200000000     0.660700000000     0.919900000000     0          
O        O      0.560400000000     0.599500000000     0.883700000000     0          
T        Si     0.556900000000     0.622000000000     0.924500000000     0          
O        O      0.714300000000     0.656200000000     0.794900000000     0          
O        O      0.775500000000     0.685400000000     0.758700000000     0          
T        Si     0.753000000000     0.681900000000     0.799500000000     0          
O        O      0.580100000000     0.718800000000     0.660700000000     0          
O        O      0.616300000000     0.689600000000     0.599500000000     0          
T        Si     0.575500000000     0.693100000000     0.622000000000     0          
O        O      0.830100000000     0.531200000000     0.839300000000     0          
O        O      0.866300000000     0.560400000000     0.900500000000     0          
T        Si     0.825500000000     0.556900000000     0.878000000000     0          
O        O      0.843800000000     0.955100000000     0.714300000000     0          
O        O      0.814600000000     0.991300000000     0.775500000000     0          
T        Si     0.818100000000     0.950500000000     0.753000000000     0          
O        O      0.919900000000     0.968800000000     0.589300000000     0          
O        O      0.883700000000     0.939600000000     0.650500000000     0          
T        Si     0.924500000000     0.943100000000     0.628000000000     0          
O        O      0.656200000000     0.794900000000     0.714300000000     0          
O        O      0.685400000000     0.758700000000     0.775500000000     0          
T        Si     0.681900000000     0.799500000000     0.753000000000     0          
O        O      0.669900000000     0.781200000000     0.910700000000     0          
O        O      0.633700000000     0.810400000000     0.849500000000     0          
T        Si     0.674500000000     0.806900000000     0.872000000000     0          
O        O      0.843800000000     0.544900000000     0.535700000000     0          
O        O      0.814600000000     0.508700000000     0.974500000000     0          
T        Si     0.818100000000     0.549500000000     0.997000000000     0          
O        O      0.906200000000     0.955100000000     0.785700000000     0          
O        O      0.935400000000     0.991300000000     0.724500000000     0          
T        Si     0.931900000000     0.950500000000     0.747000000000     0          


