data_zeolite

_audit_creation_method RASPA-1.0
_audit_creation_date 2021-6-8
_audit_author_name ''

_cell_length_a    18.889
_cell_length_b    22.8023
_cell_length_c    29.0815
_cell_angle_alpha 90
_cell_angle_beta  90
_cell_angle_gamma 90
_cell_volume      50103.1

_symmetry_cell_setting          orthorhombic
_symmetry_space_group_name_Hall 'P 1'
_symmetry_space_group_name_H-M  'P 1'
_symmetry_Int_Tables_number     1

_symmetry_equiv_pos_as_xyz 'x,y,z'

loop_
_atom_site_label
_atom_site_type_symbol
_atom_site_fract_x
_atom_site_fract_y
_atom_site_fract_z
_atom_site_charge
T        Si     0.069125000000     0.141735000000     0.449250000000     0          
T        Si     0.180590000000     0.120155000000     0.447340000000     0          
T        Si     0.114870000000     0.085635000000     0.435490000000     0          
T        Si     0.114890000000     0.073690000000     0.538800000000     0          
T        Si     0.069750000000     0.038610000000     0.392910000000     0          
T        Si     0.073210000000     0.017175000000     0.547160000000     0          
T        Si     0.038975000000     0.053550000000     0.300230000000     0          
T        Si     0.000000000000     0.133245000000     0.396770000000     0          
T        Si     0.000000000000     0.110120000000     0.600620000000     0          
T        Si     0.000000000000     0.067370000000     0.436190000000     0          
T        Si     0.000000000000     0.052510000000     0.540840000000     0          
T        Si     0.000000000000     0.108630000000     0.301710000000     0          
T        Si     0.430875000000     0.358265000000     0.949250000000     0          
T        Si     0.319410000000     0.379845000000     0.947340000000     0          
T        Si     0.385130000000     0.414365000000     0.935490000000     0          
T        Si     0.385110000000     0.426310000000     0.038800000000     0          
T        Si     0.430250000000     0.461390000000     0.892910000000     0          
T        Si     0.426790000000     0.482825000000     0.047160000000     0          
T        Si     0.461025000000     0.446450000000     0.800230000000     0          
T        Si     0.000000000000     0.366755000000     0.896770000000     0          
T        Si     0.000000000000     0.389880000000     0.100620000000     0          
T        Si     0.000000000000     0.432630000000     0.936190000000     0          
T        Si     0.000000000000     0.447490000000     0.040840000000     0          
T        Si     0.000000000000     0.391370000000     0.801710000000     0          
T        Si     0.069125000000     0.358265000000     0.550750000000     0          
T        Si     0.180590000000     0.379845000000     0.552660000000     0          
T        Si     0.114870000000     0.414365000000     0.564510000000     0          
T        Si     0.114890000000     0.426310000000     0.461200000000     0          
T        Si     0.069750000000     0.461390000000     0.607090000000     0          
T        Si     0.073210000000     0.482825000000     0.452840000000     0          
T        Si     0.038975000000     0.446450000000     0.699770000000     0          
T        Si     0.000000000000     0.366755000000     0.603230000000     0          
T        Si     0.000000000000     0.389880000000     0.399380000000     0          
T        Si     0.000000000000     0.432630000000     0.563810000000     0          
T        Si     0.000000000000     0.447490000000     0.459160000000     0          
T        Si     0.000000000000     0.391370000000     0.698290000000     0          
T        Si     0.430875000000     0.141735000000     0.050750000000     0          
T        Si     0.319410000000     0.120155000000     0.052660000000     0          
T        Si     0.385130000000     0.085635000000     0.064510000000     0          
T        Si     0.385110000000     0.073690000000     0.961200000000     0          
T        Si     0.430250000000     0.038610000000     0.107090000000     0          
T        Si     0.426790000000     0.017175000000     0.952840000000     0          
T        Si     0.461025000000     0.053550000000     0.199770000000     0          
T        Si     0.000000000000     0.133245000000     0.103230000000     0          
T        Si     0.000000000000     0.110120000000     0.899380000000     0          
T        Si     0.000000000000     0.067370000000     0.063810000000     0          
T        Si     0.000000000000     0.052510000000     0.959160000000     0          
T        Si     0.000000000000     0.108630000000     0.198290000000     0          
T        Si     0.430875000000     0.358265000000     0.550750000000     0          
T        Si     0.319410000000     0.379845000000     0.552660000000     0          
T        Si     0.385130000000     0.414365000000     0.564510000000     0          
T        Si     0.385110000000     0.426310000000     0.461200000000     0          
T        Si     0.430250000000     0.461390000000     0.607090000000     0          
T        Si     0.426790000000     0.482825000000     0.452840000000     0          
T        Si     0.461025000000     0.446450000000     0.699770000000     0          
T        Si     0.069125000000     0.141735000000     0.050750000000     0          
T        Si     0.180590000000     0.120155000000     0.052660000000     0          
T        Si     0.114870000000     0.085635000000     0.064510000000     0          
T        Si     0.114890000000     0.073690000000     0.961200000000     0          
T        Si     0.069750000000     0.038610000000     0.107090000000     0          
T        Si     0.073210000000     0.017175000000     0.952840000000     0          
T        Si     0.038975000000     0.053550000000     0.199770000000     0          
T        Si     0.430875000000     0.141735000000     0.449250000000     0          
T        Si     0.319410000000     0.120155000000     0.447340000000     0          
T        Si     0.385130000000     0.085635000000     0.435490000000     0          
T        Si     0.385110000000     0.073690000000     0.538800000000     0          
T        Si     0.430250000000     0.038610000000     0.392910000000     0          
T        Si     0.426790000000     0.017175000000     0.547160000000     0          
T        Si     0.461025000000     0.053550000000     0.300230000000     0          
T        Si     0.069125000000     0.358265000000     0.949250000000     0          
T        Si     0.180590000000     0.379845000000     0.947340000000     0          
T        Si     0.114870000000     0.414365000000     0.935490000000     0          
T        Si     0.114890000000     0.426310000000     0.038800000000     0          
T        Si     0.069750000000     0.461390000000     0.892910000000     0          
T        Si     0.073210000000     0.482825000000     0.047160000000     0          
T        Si     0.038975000000     0.446450000000     0.800230000000     0          
T        Si     0.319125000000     0.391735000000     0.449250000000     0          
T        Si     0.430590000000     0.370155000000     0.447340000000     0          
T        Si     0.364870000000     0.335635000000     0.435490000000     0          
T        Si     0.364890000000     0.323690000000     0.538800000000     0          
T        Si     0.319750000000     0.288610000000     0.392910000000     0          
T        Si     0.323210000000     0.267175000000     0.547160000000     0          
T        Si     0.288975000000     0.303550000000     0.300230000000     0          
T        Si     0.250000000000     0.383245000000     0.396770000000     0          
T        Si     0.250000000000     0.360120000000     0.600620000000     0          
T        Si     0.250000000000     0.317370000000     0.436190000000     0          
T        Si     0.250000000000     0.302510000000     0.540840000000     0          
T        Si     0.250000000000     0.358630000000     0.301710000000     0          
T        Si     0.180875000000     0.108265000000     0.949250000000     0          
T        Si     0.069410000000     0.129845000000     0.947340000000     0          
T        Si     0.135130000000     0.164365000000     0.935490000000     0          
T        Si     0.135110000000     0.176310000000     0.038800000000     0          
T        Si     0.180250000000     0.211390000000     0.892910000000     0          
T        Si     0.176790000000     0.232825000000     0.047160000000     0          
T        Si     0.211025000000     0.196450000000     0.800230000000     0          
T        Si     0.250000000000     0.116755000000     0.896770000000     0          
T        Si     0.250000000000     0.139880000000     0.100620000000     0          
T        Si     0.250000000000     0.182630000000     0.936190000000     0          
T        Si     0.250000000000     0.197490000000     0.040840000000     0          
T        Si     0.250000000000     0.141370000000     0.801710000000     0          
T        Si     0.319125000000     0.108265000000     0.550750000000     0          
T        Si     0.430590000000     0.129845000000     0.552660000000     0          
T        Si     0.364870000000     0.164365000000     0.564510000000     0          
T        Si     0.364890000000     0.176310000000     0.461200000000     0          
T        Si     0.319750000000     0.211390000000     0.607090000000     0          
T        Si     0.323210000000     0.232825000000     0.452840000000     0          
T        Si     0.288975000000     0.196450000000     0.699770000000     0          
T        Si     0.250000000000     0.116755000000     0.603230000000     0          
T        Si     0.250000000000     0.139880000000     0.399380000000     0          
T        Si     0.250000000000     0.182630000000     0.563810000000     0          
T        Si     0.250000000000     0.197490000000     0.459160000000     0          
T        Si     0.250000000000     0.141370000000     0.698290000000     0          
T        Si     0.180875000000     0.391735000000     0.050750000000     0          
T        Si     0.069410000000     0.370155000000     0.052660000000     0          
T        Si     0.135130000000     0.335635000000     0.064510000000     0          
T        Si     0.135110000000     0.323690000000     0.961200000000     0          
T        Si     0.180250000000     0.288610000000     0.107090000000     0          
T        Si     0.176790000000     0.267175000000     0.952840000000     0          
T        Si     0.211025000000     0.303550000000     0.199770000000     0          
T        Si     0.250000000000     0.383245000000     0.103230000000     0          
T        Si     0.250000000000     0.360120000000     0.899380000000     0          
T        Si     0.250000000000     0.317370000000     0.063810000000     0          
T        Si     0.250000000000     0.302510000000     0.959160000000     0          
T        Si     0.250000000000     0.358630000000     0.198290000000     0          
T        Si     0.180875000000     0.108265000000     0.550750000000     0          
T        Si     0.069410000000     0.129845000000     0.552660000000     0          
T        Si     0.135130000000     0.164365000000     0.564510000000     0          
T        Si     0.135110000000     0.176310000000     0.461200000000     0          
T        Si     0.180250000000     0.211390000000     0.607090000000     0          
T        Si     0.176790000000     0.232825000000     0.452840000000     0          
T        Si     0.211025000000     0.196450000000     0.699770000000     0          
T        Si     0.319125000000     0.391735000000     0.050750000000     0          
T        Si     0.430590000000     0.370155000000     0.052660000000     0          
T        Si     0.364870000000     0.335635000000     0.064510000000     0          
T        Si     0.364890000000     0.323690000000     0.961200000000     0          
T        Si     0.319750000000     0.288610000000     0.107090000000     0          
T        Si     0.323210000000     0.267175000000     0.952840000000     0          
T        Si     0.288975000000     0.303550000000     0.199770000000     0          
T        Si     0.180875000000     0.391735000000     0.449250000000     0          
T        Si     0.069410000000     0.370155000000     0.447340000000     0          
T        Si     0.135130000000     0.335635000000     0.435490000000     0          
T        Si     0.135110000000     0.323690000000     0.538800000000     0          
T        Si     0.180250000000     0.288610000000     0.392910000000     0          
T        Si     0.176790000000     0.267175000000     0.547160000000     0          
T        Si     0.211025000000     0.303550000000     0.300230000000     0          
T        Si     0.319125000000     0.108265000000     0.949250000000     0          
T        Si     0.430590000000     0.129845000000     0.947340000000     0          
T        Si     0.364870000000     0.164365000000     0.935490000000     0          
T        Si     0.364890000000     0.176310000000     0.038800000000     0          
T        Si     0.319750000000     0.211390000000     0.892910000000     0          
T        Si     0.323210000000     0.232825000000     0.047160000000     0          
T        Si     0.288975000000     0.196450000000     0.800230000000     0          
T        Si     0.069125000000     0.641735000000     0.449250000000     0          
T        Si     0.180590000000     0.620155000000     0.447340000000     0          
T        Si     0.114870000000     0.585635000000     0.435490000000     0          
T        Si     0.114890000000     0.573690000000     0.538800000000     0          
T        Si     0.069750000000     0.538610000000     0.392910000000     0          
T        Si     0.073210000000     0.517175000000     0.547160000000     0          
T        Si     0.038975000000     0.553550000000     0.300230000000     0          
T        Si     0.000000000000     0.633245000000     0.396770000000     0          
T        Si     0.000000000000     0.610120000000     0.600620000000     0          
T        Si     0.000000000000     0.567370000000     0.436190000000     0          
T        Si     0.000000000000     0.552510000000     0.540840000000     0          
T        Si     0.000000000000     0.608630000000     0.301710000000     0          
T        Si     0.430875000000     0.858265000000     0.949250000000     0          
T        Si     0.319410000000     0.879845000000     0.947340000000     0          
T        Si     0.385130000000     0.914365000000     0.935490000000     0          
T        Si     0.385110000000     0.926310000000     0.038800000000     0          
T        Si     0.430250000000     0.961390000000     0.892910000000     0          
T        Si     0.426790000000     0.982825000000     0.047160000000     0          
T        Si     0.461025000000     0.946450000000     0.800230000000     0          
T        Si     0.000000000000     0.866755000000     0.896770000000     0          
T        Si     0.000000000000     0.889880000000     0.100620000000     0          
T        Si     0.000000000000     0.932630000000     0.936190000000     0          
T        Si     0.000000000000     0.947490000000     0.040840000000     0          
T        Si     0.000000000000     0.891370000000     0.801710000000     0          
T        Si     0.069125000000     0.858265000000     0.550750000000     0          
T        Si     0.180590000000     0.879845000000     0.552660000000     0          
T        Si     0.114870000000     0.914365000000     0.564510000000     0          
T        Si     0.114890000000     0.926310000000     0.461200000000     0          
T        Si     0.069750000000     0.961390000000     0.607090000000     0          
T        Si     0.073210000000     0.982825000000     0.452840000000     0          
T        Si     0.038975000000     0.946450000000     0.699770000000     0          
T        Si     0.000000000000     0.866755000000     0.603230000000     0          
T        Si     0.000000000000     0.889880000000     0.399380000000     0          
T        Si     0.000000000000     0.932630000000     0.563810000000     0          
T        Si     0.000000000000     0.947490000000     0.459160000000     0          
T        Si     0.000000000000     0.891370000000     0.698290000000     0          
T        Si     0.430875000000     0.641735000000     0.050750000000     0          
T        Si     0.319410000000     0.620155000000     0.052660000000     0          
T        Si     0.385130000000     0.585635000000     0.064510000000     0          
T        Si     0.385110000000     0.573690000000     0.961200000000     0          
T        Si     0.430250000000     0.538610000000     0.107090000000     0          
T        Si     0.426790000000     0.517175000000     0.952840000000     0          
T        Si     0.461025000000     0.553550000000     0.199770000000     0          
T        Si     0.000000000000     0.633245000000     0.103230000000     0          
T        Si     0.000000000000     0.610120000000     0.899380000000     0          
T        Si     0.000000000000     0.567370000000     0.063810000000     0          
T        Si     0.000000000000     0.552510000000     0.959160000000     0          
T        Si     0.000000000000     0.608630000000     0.198290000000     0          
T        Si     0.430875000000     0.858265000000     0.550750000000     0          
T        Si     0.319410000000     0.879845000000     0.552660000000     0          
T        Si     0.385130000000     0.914365000000     0.564510000000     0          
T        Si     0.385110000000     0.926310000000     0.461200000000     0          
T        Si     0.430250000000     0.961390000000     0.607090000000     0          
T        Si     0.426790000000     0.982825000000     0.452840000000     0          
T        Si     0.461025000000     0.946450000000     0.699770000000     0          
T        Si     0.069125000000     0.641735000000     0.050750000000     0          
T        Si     0.180590000000     0.620155000000     0.052660000000     0          
T        Si     0.114870000000     0.585635000000     0.064510000000     0          
T        Si     0.114890000000     0.573690000000     0.961200000000     0          
T        Si     0.069750000000     0.538610000000     0.107090000000     0          
T        Si     0.073210000000     0.517175000000     0.952840000000     0          
T        Si     0.038975000000     0.553550000000     0.199770000000     0          
T        Si     0.430875000000     0.641735000000     0.449250000000     0          
T        Si     0.319410000000     0.620155000000     0.447340000000     0          
T        Si     0.385130000000     0.585635000000     0.435490000000     0          
T        Si     0.385110000000     0.573690000000     0.538800000000     0          
T        Si     0.430250000000     0.538610000000     0.392910000000     0          
T        Si     0.426790000000     0.517175000000     0.547160000000     0          
T        Si     0.461025000000     0.553550000000     0.300230000000     0          
T        Si     0.069125000000     0.858265000000     0.949250000000     0          
T        Si     0.180590000000     0.879845000000     0.947340000000     0          
T        Si     0.114870000000     0.914365000000     0.935490000000     0          
T        Si     0.114890000000     0.926310000000     0.038800000000     0          
T        Si     0.069750000000     0.961390000000     0.892910000000     0          
T        Si     0.073210000000     0.982825000000     0.047160000000     0          
T        Si     0.038975000000     0.946450000000     0.800230000000     0          
T        Si     0.319125000000     0.891735000000     0.449250000000     0          
T        Si     0.430590000000     0.870155000000     0.447340000000     0          
T        Si     0.364870000000     0.835635000000     0.435490000000     0          
T        Si     0.364890000000     0.823690000000     0.538800000000     0          
T        Si     0.319750000000     0.788610000000     0.392910000000     0          
T        Si     0.323210000000     0.767175000000     0.547160000000     0          
T        Si     0.288975000000     0.803550000000     0.300230000000     0          
T        Si     0.250000000000     0.883245000000     0.396770000000     0          
T        Si     0.250000000000     0.860120000000     0.600620000000     0          
T        Si     0.250000000000     0.817370000000     0.436190000000     0          
T        Si     0.250000000000     0.802510000000     0.540840000000     0          
T        Si     0.250000000000     0.858630000000     0.301710000000     0          
T        Si     0.180875000000     0.608265000000     0.949250000000     0          
T        Si     0.069410000000     0.629845000000     0.947340000000     0          
T        Si     0.135130000000     0.664365000000     0.935490000000     0          
T        Si     0.135110000000     0.676310000000     0.038800000000     0          
T        Si     0.180250000000     0.711390000000     0.892910000000     0          
T        Si     0.176790000000     0.732825000000     0.047160000000     0          
T        Si     0.211025000000     0.696450000000     0.800230000000     0          
T        Si     0.250000000000     0.616755000000     0.896770000000     0          
T        Si     0.250000000000     0.639880000000     0.100620000000     0          
T        Si     0.250000000000     0.682630000000     0.936190000000     0          
T        Si     0.250000000000     0.697490000000     0.040840000000     0          
T        Si     0.250000000000     0.641370000000     0.801710000000     0          
T        Si     0.319125000000     0.608265000000     0.550750000000     0          
T        Si     0.430590000000     0.629845000000     0.552660000000     0          
T        Si     0.364870000000     0.664365000000     0.564510000000     0          
T        Si     0.364890000000     0.676310000000     0.461200000000     0          
T        Si     0.319750000000     0.711390000000     0.607090000000     0          
T        Si     0.323210000000     0.732825000000     0.452840000000     0          
T        Si     0.288975000000     0.696450000000     0.699770000000     0          
T        Si     0.250000000000     0.616755000000     0.603230000000     0          
T        Si     0.250000000000     0.639880000000     0.399380000000     0          
T        Si     0.250000000000     0.682630000000     0.563810000000     0          
T        Si     0.250000000000     0.697490000000     0.459160000000     0          
T        Si     0.250000000000     0.641370000000     0.698290000000     0          
T        Si     0.180875000000     0.891735000000     0.050750000000     0          
T        Si     0.069410000000     0.870155000000     0.052660000000     0          
T        Si     0.135130000000     0.835635000000     0.064510000000     0          
T        Si     0.135110000000     0.823690000000     0.961200000000     0          
T        Si     0.180250000000     0.788610000000     0.107090000000     0          
T        Si     0.176790000000     0.767175000000     0.952840000000     0          
T        Si     0.211025000000     0.803550000000     0.199770000000     0          
T        Si     0.250000000000     0.883245000000     0.103230000000     0          
T        Si     0.250000000000     0.860120000000     0.899380000000     0          
T        Si     0.250000000000     0.817370000000     0.063810000000     0          
T        Si     0.250000000000     0.802510000000     0.959160000000     0          
T        Si     0.250000000000     0.858630000000     0.198290000000     0          
T        Si     0.180875000000     0.608265000000     0.550750000000     0          
T        Si     0.069410000000     0.629845000000     0.552660000000     0          
T        Si     0.135130000000     0.664365000000     0.564510000000     0          
T        Si     0.135110000000     0.676310000000     0.461200000000     0          
T        Si     0.180250000000     0.711390000000     0.607090000000     0          
T        Si     0.176790000000     0.732825000000     0.452840000000     0          
T        Si     0.211025000000     0.696450000000     0.699770000000     0          
T        Si     0.319125000000     0.891735000000     0.050750000000     0          
T        Si     0.430590000000     0.870155000000     0.052660000000     0          
T        Si     0.364870000000     0.835635000000     0.064510000000     0          
T        Si     0.364890000000     0.823690000000     0.961200000000     0          
T        Si     0.319750000000     0.788610000000     0.107090000000     0          
T        Si     0.323210000000     0.767175000000     0.952840000000     0          
T        Si     0.288975000000     0.803550000000     0.199770000000     0          
T        Si     0.180875000000     0.891735000000     0.449250000000     0          
T        Si     0.069410000000     0.870155000000     0.447340000000     0          
T        Si     0.135130000000     0.835635000000     0.435490000000     0          
T        Si     0.135110000000     0.823690000000     0.538800000000     0          
T        Si     0.180250000000     0.788610000000     0.392910000000     0          
T        Si     0.176790000000     0.767175000000     0.547160000000     0          
T        Si     0.211025000000     0.803550000000     0.300230000000     0          
T        Si     0.319125000000     0.608265000000     0.949250000000     0          
T        Si     0.430590000000     0.629845000000     0.947340000000     0          
T        Si     0.364870000000     0.664365000000     0.935490000000     0          
T        Si     0.364890000000     0.676310000000     0.038800000000     0          
T        Si     0.319750000000     0.711390000000     0.892910000000     0          
T        Si     0.323210000000     0.732825000000     0.047160000000     0          
T        Si     0.288975000000     0.696450000000     0.800230000000     0          
T        Si     0.569125000000     0.141735000000     0.449250000000     0          
T        Si     0.680590000000     0.120155000000     0.447340000000     0          
T        Si     0.614870000000     0.085635000000     0.435490000000     0          
T        Si     0.614890000000     0.073690000000     0.538800000000     0          
T        Si     0.569750000000     0.038610000000     0.392910000000     0          
T        Si     0.573210000000     0.017175000000     0.547160000000     0          
T        Si     0.538975000000     0.053550000000     0.300230000000     0          
T        Si     0.500000000000     0.133245000000     0.396770000000     0          
T        Si     0.500000000000     0.110120000000     0.600620000000     0          
T        Si     0.500000000000     0.067370000000     0.436190000000     0          
T        Si     0.500000000000     0.052510000000     0.540840000000     0          
T        Si     0.500000000000     0.108630000000     0.301710000000     0          
T        Si     0.930875000000     0.358265000000     0.949250000000     0          
T        Si     0.819410000000     0.379845000000     0.947340000000     0          
T        Si     0.885130000000     0.414365000000     0.935490000000     0          
T        Si     0.885110000000     0.426310000000     0.038800000000     0          
T        Si     0.930250000000     0.461390000000     0.892910000000     0          
T        Si     0.926790000000     0.482825000000     0.047160000000     0          
T        Si     0.961025000000     0.446450000000     0.800230000000     0          
T        Si     0.500000000000     0.366755000000     0.896770000000     0          
T        Si     0.500000000000     0.389880000000     0.100620000000     0          
T        Si     0.500000000000     0.432630000000     0.936190000000     0          
T        Si     0.500000000000     0.447490000000     0.040840000000     0          
T        Si     0.500000000000     0.391370000000     0.801710000000     0          
T        Si     0.569125000000     0.358265000000     0.550750000000     0          
T        Si     0.680590000000     0.379845000000     0.552660000000     0          
T        Si     0.614870000000     0.414365000000     0.564510000000     0          
T        Si     0.614890000000     0.426310000000     0.461200000000     0          
T        Si     0.569750000000     0.461390000000     0.607090000000     0          
T        Si     0.573210000000     0.482825000000     0.452840000000     0          
T        Si     0.538975000000     0.446450000000     0.699770000000     0          
T        Si     0.500000000000     0.366755000000     0.603230000000     0          
T        Si     0.500000000000     0.389880000000     0.399380000000     0          
T        Si     0.500000000000     0.432630000000     0.563810000000     0          
T        Si     0.500000000000     0.447490000000     0.459160000000     0          
T        Si     0.500000000000     0.391370000000     0.698290000000     0          
T        Si     0.930875000000     0.141735000000     0.050750000000     0          
T        Si     0.819410000000     0.120155000000     0.052660000000     0          
T        Si     0.885130000000     0.085635000000     0.064510000000     0          
T        Si     0.885110000000     0.073690000000     0.961200000000     0          
T        Si     0.930250000000     0.038610000000     0.107090000000     0          
T        Si     0.926790000000     0.017175000000     0.952840000000     0          
T        Si     0.961025000000     0.053550000000     0.199770000000     0          
T        Si     0.500000000000     0.133245000000     0.103230000000     0          
T        Si     0.500000000000     0.110120000000     0.899380000000     0          
T        Si     0.500000000000     0.067370000000     0.063810000000     0          
T        Si     0.500000000000     0.052510000000     0.959160000000     0          
T        Si     0.500000000000     0.108630000000     0.198290000000     0          
T        Si     0.930875000000     0.358265000000     0.550750000000     0          
T        Si     0.819410000000     0.379845000000     0.552660000000     0          
T        Si     0.885130000000     0.414365000000     0.564510000000     0          
T        Si     0.885110000000     0.426310000000     0.461200000000     0          
T        Si     0.930250000000     0.461390000000     0.607090000000     0          
T        Si     0.926790000000     0.482825000000     0.452840000000     0          
T        Si     0.961025000000     0.446450000000     0.699770000000     0          
T        Si     0.569125000000     0.141735000000     0.050750000000     0          
T        Si     0.680590000000     0.120155000000     0.052660000000     0          
T        Si     0.614870000000     0.085635000000     0.064510000000     0          
T        Si     0.614890000000     0.073690000000     0.961200000000     0          
T        Si     0.569750000000     0.038610000000     0.107090000000     0          
T        Si     0.573210000000     0.017175000000     0.952840000000     0          
T        Si     0.538975000000     0.053550000000     0.199770000000     0          
T        Si     0.930875000000     0.141735000000     0.449250000000     0          
T        Si     0.819410000000     0.120155000000     0.447340000000     0          
T        Si     0.885130000000     0.085635000000     0.435490000000     0          
T        Si     0.885110000000     0.073690000000     0.538800000000     0          
T        Si     0.930250000000     0.038610000000     0.392910000000     0          
T        Si     0.926790000000     0.017175000000     0.547160000000     0          
T        Si     0.961025000000     0.053550000000     0.300230000000     0          
T        Si     0.569125000000     0.358265000000     0.949250000000     0          
T        Si     0.680590000000     0.379845000000     0.947340000000     0          
T        Si     0.614870000000     0.414365000000     0.935490000000     0          
T        Si     0.614890000000     0.426310000000     0.038800000000     0          
T        Si     0.569750000000     0.461390000000     0.892910000000     0          
T        Si     0.573210000000     0.482825000000     0.047160000000     0          
T        Si     0.538975000000     0.446450000000     0.800230000000     0          
T        Si     0.819125000000     0.391735000000     0.449250000000     0          
T        Si     0.930590000000     0.370155000000     0.447340000000     0          
T        Si     0.864870000000     0.335635000000     0.435490000000     0          
T        Si     0.864890000000     0.323690000000     0.538800000000     0          
T        Si     0.819750000000     0.288610000000     0.392910000000     0          
T        Si     0.823210000000     0.267175000000     0.547160000000     0          
T        Si     0.788975000000     0.303550000000     0.300230000000     0          
T        Si     0.750000000000     0.383245000000     0.396770000000     0          
T        Si     0.750000000000     0.360120000000     0.600620000000     0          
T        Si     0.750000000000     0.317370000000     0.436190000000     0          
T        Si     0.750000000000     0.302510000000     0.540840000000     0          
T        Si     0.750000000000     0.358630000000     0.301710000000     0          
T        Si     0.680875000000     0.108265000000     0.949250000000     0          
T        Si     0.569410000000     0.129845000000     0.947340000000     0          
T        Si     0.635130000000     0.164365000000     0.935490000000     0          
T        Si     0.635110000000     0.176310000000     0.038800000000     0          
T        Si     0.680250000000     0.211390000000     0.892910000000     0          
T        Si     0.676790000000     0.232825000000     0.047160000000     0          
T        Si     0.711025000000     0.196450000000     0.800230000000     0          
T        Si     0.750000000000     0.116755000000     0.896770000000     0          
T        Si     0.750000000000     0.139880000000     0.100620000000     0          
T        Si     0.750000000000     0.182630000000     0.936190000000     0          
T        Si     0.750000000000     0.197490000000     0.040840000000     0          
T        Si     0.750000000000     0.141370000000     0.801710000000     0          
T        Si     0.819125000000     0.108265000000     0.550750000000     0          
T        Si     0.930590000000     0.129845000000     0.552660000000     0          
T        Si     0.864870000000     0.164365000000     0.564510000000     0          
T        Si     0.864890000000     0.176310000000     0.461200000000     0          
T        Si     0.819750000000     0.211390000000     0.607090000000     0          
T        Si     0.823210000000     0.232825000000     0.452840000000     0          
T        Si     0.788975000000     0.196450000000     0.699770000000     0          
T        Si     0.750000000000     0.116755000000     0.603230000000     0          
T        Si     0.750000000000     0.139880000000     0.399380000000     0          
T        Si     0.750000000000     0.182630000000     0.563810000000     0          
T        Si     0.750000000000     0.197490000000     0.459160000000     0          
T        Si     0.750000000000     0.141370000000     0.698290000000     0          
T        Si     0.680875000000     0.391735000000     0.050750000000     0          
T        Si     0.569410000000     0.370155000000     0.052660000000     0          
T        Si     0.635130000000     0.335635000000     0.064510000000     0          
T        Si     0.635110000000     0.323690000000     0.961200000000     0          
T        Si     0.680250000000     0.288610000000     0.107090000000     0          
T        Si     0.676790000000     0.267175000000     0.952840000000     0          
T        Si     0.711025000000     0.303550000000     0.199770000000     0          
T        Si     0.750000000000     0.383245000000     0.103230000000     0          
T        Si     0.750000000000     0.360120000000     0.899380000000     0          
T        Si     0.750000000000     0.317370000000     0.063810000000     0          
T        Si     0.750000000000     0.302510000000     0.959160000000     0          
T        Si     0.750000000000     0.358630000000     0.198290000000     0          
T        Si     0.680875000000     0.108265000000     0.550750000000     0          
T        Si     0.569410000000     0.129845000000     0.552660000000     0          
T        Si     0.635130000000     0.164365000000     0.564510000000     0          
T        Si     0.635110000000     0.176310000000     0.461200000000     0          
T        Si     0.680250000000     0.211390000000     0.607090000000     0          
T        Si     0.676790000000     0.232825000000     0.452840000000     0          
T        Si     0.711025000000     0.196450000000     0.699770000000     0          
T        Si     0.819125000000     0.391735000000     0.050750000000     0          
T        Si     0.930590000000     0.370155000000     0.052660000000     0          
T        Si     0.864870000000     0.335635000000     0.064510000000     0          
T        Si     0.864890000000     0.323690000000     0.961200000000     0          
T        Si     0.819750000000     0.288610000000     0.107090000000     0          
T        Si     0.823210000000     0.267175000000     0.952840000000     0          
T        Si     0.788975000000     0.303550000000     0.199770000000     0          
T        Si     0.680875000000     0.391735000000     0.449250000000     0          
T        Si     0.569410000000     0.370155000000     0.447340000000     0          
T        Si     0.635130000000     0.335635000000     0.435490000000     0          
T        Si     0.635110000000     0.323690000000     0.538800000000     0          
T        Si     0.680250000000     0.288610000000     0.392910000000     0          
T        Si     0.676790000000     0.267175000000     0.547160000000     0          
T        Si     0.711025000000     0.303550000000     0.300230000000     0          
T        Si     0.819125000000     0.108265000000     0.949250000000     0          
T        Si     0.930590000000     0.129845000000     0.947340000000     0          
T        Si     0.864870000000     0.164365000000     0.935490000000     0          
T        Si     0.864890000000     0.176310000000     0.038800000000     0          
T        Si     0.819750000000     0.211390000000     0.892910000000     0          
T        Si     0.823210000000     0.232825000000     0.047160000000     0          
T        Si     0.788975000000     0.196450000000     0.800230000000     0          
T        Si     0.569125000000     0.641735000000     0.449250000000     0          
T        Si     0.680590000000     0.620155000000     0.447340000000     0          
T        Si     0.614870000000     0.585635000000     0.435490000000     0          
T        Si     0.614890000000     0.573690000000     0.538800000000     0          
T        Si     0.569750000000     0.538610000000     0.392910000000     0          
T        Si     0.573210000000     0.517175000000     0.547160000000     0          
T        Si     0.538975000000     0.553550000000     0.300230000000     0          
T        Si     0.500000000000     0.633245000000     0.396770000000     0          
T        Si     0.500000000000     0.610120000000     0.600620000000     0          
T        Si     0.500000000000     0.567370000000     0.436190000000     0          
T        Si     0.500000000000     0.552510000000     0.540840000000     0          
T        Si     0.500000000000     0.608630000000     0.301710000000     0          
T        Si     0.930875000000     0.858265000000     0.949250000000     0          
T        Si     0.819410000000     0.879845000000     0.947340000000     0          
T        Si     0.885130000000     0.914365000000     0.935490000000     0          
T        Si     0.885110000000     0.926310000000     0.038800000000     0          
T        Si     0.930250000000     0.961390000000     0.892910000000     0          
T        Si     0.926790000000     0.982825000000     0.047160000000     0          
T        Si     0.961025000000     0.946450000000     0.800230000000     0          
T        Si     0.500000000000     0.866755000000     0.896770000000     0          
T        Si     0.500000000000     0.889880000000     0.100620000000     0          
T        Si     0.500000000000     0.932630000000     0.936190000000     0          
T        Si     0.500000000000     0.947490000000     0.040840000000     0          
T        Si     0.500000000000     0.891370000000     0.801710000000     0          
T        Si     0.569125000000     0.858265000000     0.550750000000     0          
T        Si     0.680590000000     0.879845000000     0.552660000000     0          
T        Si     0.614870000000     0.914365000000     0.564510000000     0          
T        Si     0.614890000000     0.926310000000     0.461200000000     0          
T        Si     0.569750000000     0.961390000000     0.607090000000     0          
T        Si     0.573210000000     0.982825000000     0.452840000000     0          
T        Si     0.538975000000     0.946450000000     0.699770000000     0          
T        Si     0.500000000000     0.866755000000     0.603230000000     0          
T        Si     0.500000000000     0.889880000000     0.399380000000     0          
T        Si     0.500000000000     0.932630000000     0.563810000000     0          
T        Si     0.500000000000     0.947490000000     0.459160000000     0          
T        Si     0.500000000000     0.891370000000     0.698290000000     0          
T        Si     0.930875000000     0.641735000000     0.050750000000     0          
T        Si     0.819410000000     0.620155000000     0.052660000000     0          
T        Si     0.885130000000     0.585635000000     0.064510000000     0          
T        Si     0.885110000000     0.573690000000     0.961200000000     0          
T        Si     0.930250000000     0.538610000000     0.107090000000     0          
T        Si     0.926790000000     0.517175000000     0.952840000000     0          
T        Si     0.961025000000     0.553550000000     0.199770000000     0          
T        Si     0.500000000000     0.633245000000     0.103230000000     0          
T        Si     0.500000000000     0.610120000000     0.899380000000     0          
T        Si     0.500000000000     0.567370000000     0.063810000000     0          
T        Si     0.500000000000     0.552510000000     0.959160000000     0          
T        Si     0.500000000000     0.608630000000     0.198290000000     0          
T        Si     0.930875000000     0.858265000000     0.550750000000     0          
T        Si     0.819410000000     0.879845000000     0.552660000000     0          
T        Si     0.885130000000     0.914365000000     0.564510000000     0          
T        Si     0.885110000000     0.926310000000     0.461200000000     0          
T        Si     0.930250000000     0.961390000000     0.607090000000     0          
T        Si     0.926790000000     0.982825000000     0.452840000000     0          
T        Si     0.961025000000     0.946450000000     0.699770000000     0          
T        Si     0.569125000000     0.641735000000     0.050750000000     0          
T        Si     0.680590000000     0.620155000000     0.052660000000     0          
T        Si     0.614870000000     0.585635000000     0.064510000000     0          
T        Si     0.614890000000     0.573690000000     0.961200000000     0          
T        Si     0.569750000000     0.538610000000     0.107090000000     0          
T        Si     0.573210000000     0.517175000000     0.952840000000     0          
T        Si     0.538975000000     0.553550000000     0.199770000000     0          
T        Si     0.930875000000     0.641735000000     0.449250000000     0          
T        Si     0.819410000000     0.620155000000     0.447340000000     0          
T        Si     0.885130000000     0.585635000000     0.435490000000     0          
T        Si     0.885110000000     0.573690000000     0.538800000000     0          
T        Si     0.930250000000     0.538610000000     0.392910000000     0          
T        Si     0.926790000000     0.517175000000     0.547160000000     0          
T        Si     0.961025000000     0.553550000000     0.300230000000     0          
T        Si     0.569125000000     0.858265000000     0.949250000000     0          
T        Si     0.680590000000     0.879845000000     0.947340000000     0          
T        Si     0.614870000000     0.914365000000     0.935490000000     0          
T        Si     0.614890000000     0.926310000000     0.038800000000     0          
T        Si     0.569750000000     0.961390000000     0.892910000000     0          
T        Si     0.573210000000     0.982825000000     0.047160000000     0          
T        Si     0.538975000000     0.946450000000     0.800230000000     0          
T        Si     0.819125000000     0.891735000000     0.449250000000     0          
T        Si     0.930590000000     0.870155000000     0.447340000000     0          
T        Si     0.864870000000     0.835635000000     0.435490000000     0          
T        Si     0.864890000000     0.823690000000     0.538800000000     0          
T        Si     0.819750000000     0.788610000000     0.392910000000     0          
T        Si     0.823210000000     0.767175000000     0.547160000000     0          
T        Si     0.788975000000     0.803550000000     0.300230000000     0          
T        Si     0.750000000000     0.883245000000     0.396770000000     0          
T        Si     0.750000000000     0.860120000000     0.600620000000     0          
T        Si     0.750000000000     0.817370000000     0.436190000000     0          
T        Si     0.750000000000     0.802510000000     0.540840000000     0          
T        Si     0.750000000000     0.858630000000     0.301710000000     0          
T        Si     0.680875000000     0.608265000000     0.949250000000     0          
T        Si     0.569410000000     0.629845000000     0.947340000000     0          
T        Si     0.635130000000     0.664365000000     0.935490000000     0          
T        Si     0.635110000000     0.676310000000     0.038800000000     0          
T        Si     0.680250000000     0.711390000000     0.892910000000     0          
T        Si     0.676790000000     0.732825000000     0.047160000000     0          
T        Si     0.711025000000     0.696450000000     0.800230000000     0          
T        Si     0.750000000000     0.616755000000     0.896770000000     0          
T        Si     0.750000000000     0.639880000000     0.100620000000     0          
T        Si     0.750000000000     0.682630000000     0.936190000000     0          
T        Si     0.750000000000     0.697490000000     0.040840000000     0          
T        Si     0.750000000000     0.641370000000     0.801710000000     0          
T        Si     0.819125000000     0.608265000000     0.550750000000     0          
T        Si     0.930590000000     0.629845000000     0.552660000000     0          
T        Si     0.864870000000     0.664365000000     0.564510000000     0          
T        Si     0.864890000000     0.676310000000     0.461200000000     0          
T        Si     0.819750000000     0.711390000000     0.607090000000     0          
T        Si     0.823210000000     0.732825000000     0.452840000000     0          
T        Si     0.788975000000     0.696450000000     0.699770000000     0          
T        Si     0.750000000000     0.616755000000     0.603230000000     0          
T        Si     0.750000000000     0.639880000000     0.399380000000     0          
T        Si     0.750000000000     0.682630000000     0.563810000000     0          
T        Si     0.750000000000     0.697490000000     0.459160000000     0          
T        Si     0.750000000000     0.641370000000     0.698290000000     0          
T        Si     0.680875000000     0.891735000000     0.050750000000     0          
T        Si     0.569410000000     0.870155000000     0.052660000000     0          
T        Si     0.635130000000     0.835635000000     0.064510000000     0          
T        Si     0.635110000000     0.823690000000     0.961200000000     0          
T        Si     0.680250000000     0.788610000000     0.107090000000     0          
T        Si     0.676790000000     0.767175000000     0.952840000000     0          
T        Si     0.711025000000     0.803550000000     0.199770000000     0          
T        Si     0.750000000000     0.883245000000     0.103230000000     0          
T        Si     0.750000000000     0.860120000000     0.899380000000     0          
T        Si     0.750000000000     0.817370000000     0.063810000000     0          
T        Si     0.750000000000     0.802510000000     0.959160000000     0          
T        Si     0.750000000000     0.858630000000     0.198290000000     0          
T        Si     0.680875000000     0.608265000000     0.550750000000     0          
T        Si     0.569410000000     0.629845000000     0.552660000000     0          
T        Si     0.635130000000     0.664365000000     0.564510000000     0          
T        Si     0.635110000000     0.676310000000     0.461200000000     0          
T        Si     0.680250000000     0.711390000000     0.607090000000     0          
T        Si     0.676790000000     0.732825000000     0.452840000000     0          
T        Si     0.711025000000     0.696450000000     0.699770000000     0          
T        Si     0.819125000000     0.891735000000     0.050750000000     0          
T        Si     0.930590000000     0.870155000000     0.052660000000     0          
T        Si     0.864870000000     0.835635000000     0.064510000000     0          
T        Si     0.864890000000     0.823690000000     0.961200000000     0          
T        Si     0.819750000000     0.788610000000     0.107090000000     0          
T        Si     0.823210000000     0.767175000000     0.952840000000     0          
T        Si     0.788975000000     0.803550000000     0.199770000000     0          
T        Si     0.680875000000     0.891735000000     0.449250000000     0          
T        Si     0.569410000000     0.870155000000     0.447340000000     0          
T        Si     0.635130000000     0.835635000000     0.435490000000     0          
T        Si     0.635110000000     0.823690000000     0.538800000000     0          
T        Si     0.680250000000     0.788610000000     0.392910000000     0          
T        Si     0.676790000000     0.767175000000     0.547160000000     0          
T        Si     0.711025000000     0.803550000000     0.300230000000     0          
T        Si     0.819125000000     0.608265000000     0.949250000000     0          
T        Si     0.930590000000     0.629845000000     0.947340000000     0          
T        Si     0.864870000000     0.664365000000     0.935490000000     0          
T        Si     0.864890000000     0.676310000000     0.038800000000     0          
T        Si     0.819750000000     0.711390000000     0.892910000000     0          
T        Si     0.823210000000     0.732825000000     0.047160000000     0          
T        Si     0.788975000000     0.696450000000     0.800230000000     0          
O        O      0.034815000000     0.148480000000     0.418090000000     0          
O        O      0.083080000000     0.108995000000     0.439110000000     0          
O        O      0.099875000000     0.164730000000     0.435940000000     0          
O        O      0.060680000000     0.144315000000     0.503420000000     0          
O        O      0.215610000000     0.121895000000     0.415960000000     0          
O        O      0.150860000000     0.101765000000     0.420000000000     0          
O        O      0.166930000000     0.153285000000     0.454440000000     0          
O        O      0.103560000000     0.059380000000     0.401550000000     0          
O        O      0.122905000000     0.070820000000     0.484640000000     0          
O        O      0.102855000000     0.041845000000     0.556740000000     0          
O        O      0.063280000000     0.037780000000     0.338220000000     0          
O        O      0.035010000000     0.050835000000     0.418440000000     0          
O        O      0.076355000000     0.005685000000     0.410820000000     0          
O        O      0.034725000000     0.032255000000     0.545720000000     0          
O        O      0.081275000000     0.000000000000     0.500000000000     0          
O        O      0.000000000000     0.039145000000     0.301150000000     0          
O        O      0.055915000000     0.048530000000     0.250000000000     0          
O        O      0.034515000000     0.088255000000     0.308870000000     0          
O        O      0.000000000000     0.133300000000     0.341340000000     0          
O        O      0.000000000000     0.099905000000     0.414920000000     0          
O        O      0.000000000000     0.077305000000     0.580270000000     0          
O        O      0.000000000000     0.068535000000     0.491490000000     0          
O        O      0.000000000000     0.121355000000     0.250000000000     0          
O        O      0.000000000000     0.108595000000     0.655950000000     0          
O        O      0.465185000000     0.351520000000     0.918090000000     0          
O        O      0.416920000000     0.391005000000     0.939110000000     0          
O        O      0.400125000000     0.335270000000     0.935940000000     0          
O        O      0.439320000000     0.355685000000     0.003420000000     0          
O        O      0.284390000000     0.378105000000     0.915960000000     0          
O        O      0.349140000000     0.398235000000     0.920000000000     0          
O        O      0.333070000000     0.346715000000     0.954440000000     0          
O        O      0.396440000000     0.440620000000     0.901550000000     0          
O        O      0.377095000000     0.429180000000     0.984640000000     0          
O        O      0.397145000000     0.458155000000     0.056740000000     0          
O        O      0.436720000000     0.462220000000     0.838220000000     0          
O        O      0.464990000000     0.449165000000     0.918440000000     0          
O        O      0.423645000000     0.494315000000     0.910820000000     0          
O        O      0.465275000000     0.467745000000     0.045720000000     0          
O        O      0.418725000000     0.000000000000     0.000000000000     0          
O        O      0.000000000000     0.460855000000     0.801150000000     0          
O        O      0.444085000000     0.451470000000     0.750000000000     0          
O        O      0.465485000000     0.411745000000     0.808870000000     0          
O        O      0.000000000000     0.366700000000     0.841340000000     0          
O        O      0.000000000000     0.400095000000     0.914920000000     0          
O        O      0.000000000000     0.422695000000     0.080270000000     0          
O        O      0.000000000000     0.431465000000     0.991490000000     0          
O        O      0.000000000000     0.378645000000     0.750000000000     0          
O        O      0.000000000000     0.391405000000     0.155950000000     0          
O        O      0.034815000000     0.351520000000     0.581910000000     0          
O        O      0.083080000000     0.391005000000     0.560890000000     0          
O        O      0.099875000000     0.335270000000     0.564060000000     0          
O        O      0.060680000000     0.355685000000     0.496580000000     0          
O        O      0.215610000000     0.378105000000     0.584040000000     0          
O        O      0.150860000000     0.398235000000     0.580000000000     0          
O        O      0.166930000000     0.346715000000     0.545560000000     0          
O        O      0.103560000000     0.440620000000     0.598450000000     0          
O        O      0.122905000000     0.429180000000     0.515360000000     0          
O        O      0.102855000000     0.458155000000     0.443260000000     0          
O        O      0.063280000000     0.462220000000     0.661780000000     0          
O        O      0.035010000000     0.449165000000     0.581560000000     0          
O        O      0.076355000000     0.494315000000     0.589180000000     0          
O        O      0.034725000000     0.467745000000     0.454280000000     0          
O        O      0.000000000000     0.460855000000     0.698850000000     0          
O        O      0.055915000000     0.451470000000     0.750000000000     0          
O        O      0.034515000000     0.411745000000     0.691130000000     0          
O        O      0.000000000000     0.366700000000     0.658660000000     0          
O        O      0.000000000000     0.400095000000     0.585080000000     0          
O        O      0.000000000000     0.422695000000     0.419730000000     0          
O        O      0.000000000000     0.431465000000     0.508510000000     0          
O        O      0.000000000000     0.391405000000     0.344050000000     0          
O        O      0.465185000000     0.148480000000     0.081910000000     0          
O        O      0.416920000000     0.108995000000     0.060890000000     0          
O        O      0.400125000000     0.164730000000     0.064060000000     0          
O        O      0.439320000000     0.144315000000     0.996580000000     0          
O        O      0.284390000000     0.121895000000     0.084040000000     0          
O        O      0.349140000000     0.101765000000     0.080000000000     0          
O        O      0.333070000000     0.153285000000     0.045560000000     0          
O        O      0.396440000000     0.059380000000     0.098450000000     0          
O        O      0.377095000000     0.070820000000     0.015360000000     0          
O        O      0.397145000000     0.041845000000     0.943260000000     0          
O        O      0.436720000000     0.037780000000     0.161780000000     0          
O        O      0.464990000000     0.050835000000     0.081560000000     0          
O        O      0.423645000000     0.005685000000     0.089180000000     0          
O        O      0.465275000000     0.032255000000     0.954280000000     0          
O        O      0.000000000000     0.039145000000     0.198850000000     0          
O        O      0.444085000000     0.048530000000     0.250000000000     0          
O        O      0.465485000000     0.088255000000     0.191130000000     0          
O        O      0.000000000000     0.133300000000     0.158660000000     0          
O        O      0.000000000000     0.099905000000     0.085080000000     0          
O        O      0.000000000000     0.077305000000     0.919730000000     0          
O        O      0.000000000000     0.068535000000     0.008510000000     0          
O        O      0.000000000000     0.108595000000     0.844050000000     0          
O        O      0.465185000000     0.351520000000     0.581910000000     0          
O        O      0.416920000000     0.391005000000     0.560890000000     0          
O        O      0.400125000000     0.335270000000     0.564060000000     0          
O        O      0.439320000000     0.355685000000     0.496580000000     0          
O        O      0.284390000000     0.378105000000     0.584040000000     0          
O        O      0.349140000000     0.398235000000     0.580000000000     0          
O        O      0.333070000000     0.346715000000     0.545560000000     0          
O        O      0.396440000000     0.440620000000     0.598450000000     0          
O        O      0.377095000000     0.429180000000     0.515360000000     0          
O        O      0.397145000000     0.458155000000     0.443260000000     0          
O        O      0.436720000000     0.462220000000     0.661780000000     0          
O        O      0.464990000000     0.449165000000     0.581560000000     0          
O        O      0.423645000000     0.494315000000     0.589180000000     0          
O        O      0.465275000000     0.467745000000     0.454280000000     0          
O        O      0.418725000000     0.000000000000     0.500000000000     0          
O        O      0.465485000000     0.411745000000     0.691130000000     0          
O        O      0.034815000000     0.148480000000     0.081910000000     0          
O        O      0.083080000000     0.108995000000     0.060890000000     0          
O        O      0.099875000000     0.164730000000     0.064060000000     0          
O        O      0.060680000000     0.144315000000     0.996580000000     0          
O        O      0.215610000000     0.121895000000     0.084040000000     0          
O        O      0.150860000000     0.101765000000     0.080000000000     0          
O        O      0.166930000000     0.153285000000     0.045560000000     0          
O        O      0.103560000000     0.059380000000     0.098450000000     0          
O        O      0.122905000000     0.070820000000     0.015360000000     0          
O        O      0.102855000000     0.041845000000     0.943260000000     0          
O        O      0.063280000000     0.037780000000     0.161780000000     0          
O        O      0.035010000000     0.050835000000     0.081560000000     0          
O        O      0.076355000000     0.005685000000     0.089180000000     0          
O        O      0.034725000000     0.032255000000     0.954280000000     0          
O        O      0.081275000000     0.000000000000     0.000000000000     0          
O        O      0.034515000000     0.088255000000     0.191130000000     0          
O        O      0.465185000000     0.148480000000     0.418090000000     0          
O        O      0.416920000000     0.108995000000     0.439110000000     0          
O        O      0.400125000000     0.164730000000     0.435940000000     0          
O        O      0.439320000000     0.144315000000     0.503420000000     0          
O        O      0.284390000000     0.121895000000     0.415960000000     0          
O        O      0.349140000000     0.101765000000     0.420000000000     0          
O        O      0.333070000000     0.153285000000     0.454440000000     0          
O        O      0.396440000000     0.059380000000     0.401550000000     0          
O        O      0.377095000000     0.070820000000     0.484640000000     0          
O        O      0.397145000000     0.041845000000     0.556740000000     0          
O        O      0.436720000000     0.037780000000     0.338220000000     0          
O        O      0.464990000000     0.050835000000     0.418440000000     0          
O        O      0.423645000000     0.005685000000     0.410820000000     0          
O        O      0.465275000000     0.032255000000     0.545720000000     0          
O        O      0.465485000000     0.088255000000     0.308870000000     0          
O        O      0.034815000000     0.351520000000     0.918090000000     0          
O        O      0.083080000000     0.391005000000     0.939110000000     0          
O        O      0.099875000000     0.335270000000     0.935940000000     0          
O        O      0.060680000000     0.355685000000     0.003420000000     0          
O        O      0.215610000000     0.378105000000     0.915960000000     0          
O        O      0.150860000000     0.398235000000     0.920000000000     0          
O        O      0.166930000000     0.346715000000     0.954440000000     0          
O        O      0.103560000000     0.440620000000     0.901550000000     0          
O        O      0.122905000000     0.429180000000     0.984640000000     0          
O        O      0.102855000000     0.458155000000     0.056740000000     0          
O        O      0.063280000000     0.462220000000     0.838220000000     0          
O        O      0.035010000000     0.449165000000     0.918440000000     0          
O        O      0.076355000000     0.494315000000     0.910820000000     0          
O        O      0.034725000000     0.467745000000     0.045720000000     0          
O        O      0.034515000000     0.411745000000     0.808870000000     0          
O        O      0.284815000000     0.398480000000     0.418090000000     0          
O        O      0.333080000000     0.358995000000     0.439110000000     0          
O        O      0.349875000000     0.414730000000     0.435940000000     0          
O        O      0.310680000000     0.394315000000     0.503420000000     0          
O        O      0.465610000000     0.371895000000     0.415960000000     0          
O        O      0.400860000000     0.351765000000     0.420000000000     0          
O        O      0.416930000000     0.403285000000     0.454440000000     0          
O        O      0.353560000000     0.309380000000     0.401550000000     0          
O        O      0.372905000000     0.320820000000     0.484640000000     0          
O        O      0.352855000000     0.291845000000     0.556740000000     0          
O        O      0.313280000000     0.287780000000     0.338220000000     0          
O        O      0.285010000000     0.300835000000     0.418440000000     0          
O        O      0.326355000000     0.255685000000     0.410820000000     0          
O        O      0.284725000000     0.282255000000     0.545720000000     0          
O        O      0.331275000000     0.250000000000     0.500000000000     0          
O        O      0.250000000000     0.289145000000     0.301150000000     0          
O        O      0.305915000000     0.298530000000     0.250000000000     0          
O        O      0.284515000000     0.338255000000     0.308870000000     0          
O        O      0.250000000000     0.383300000000     0.341340000000     0          
O        O      0.250000000000     0.349905000000     0.414920000000     0          
O        O      0.250000000000     0.327305000000     0.580270000000     0          
O        O      0.250000000000     0.318535000000     0.491490000000     0          
O        O      0.250000000000     0.371355000000     0.250000000000     0          
O        O      0.250000000000     0.358595000000     0.655950000000     0          
O        O      0.215185000000     0.101520000000     0.918090000000     0          
O        O      0.166920000000     0.141005000000     0.939110000000     0          
O        O      0.150125000000     0.085270000000     0.935940000000     0          
O        O      0.189320000000     0.105685000000     0.003420000000     0          
O        O      0.034390000000     0.128105000000     0.915960000000     0          
O        O      0.099140000000     0.148235000000     0.920000000000     0          
O        O      0.083070000000     0.096715000000     0.954440000000     0          
O        O      0.146440000000     0.190620000000     0.901550000000     0          
O        O      0.127095000000     0.179180000000     0.984640000000     0          
O        O      0.147145000000     0.208155000000     0.056740000000     0          
O        O      0.186720000000     0.212220000000     0.838220000000     0          
O        O      0.214990000000     0.199165000000     0.918440000000     0          
O        O      0.173645000000     0.244315000000     0.910820000000     0          
O        O      0.215275000000     0.217745000000     0.045720000000     0          
O        O      0.168725000000     0.250000000000     0.000000000000     0          
O        O      0.250000000000     0.210855000000     0.801150000000     0          
O        O      0.194085000000     0.201470000000     0.750000000000     0          
O        O      0.215485000000     0.161745000000     0.808870000000     0          
O        O      0.250000000000     0.116700000000     0.841340000000     0          
O        O      0.250000000000     0.150095000000     0.914920000000     0          
O        O      0.250000000000     0.172695000000     0.080270000000     0          
O        O      0.250000000000     0.181465000000     0.991490000000     0          
O        O      0.250000000000     0.128645000000     0.750000000000     0          
O        O      0.250000000000     0.141405000000     0.155950000000     0          
O        O      0.284815000000     0.101520000000     0.581910000000     0          
O        O      0.333080000000     0.141005000000     0.560890000000     0          
O        O      0.349875000000     0.085270000000     0.564060000000     0          
O        O      0.310680000000     0.105685000000     0.496580000000     0          
O        O      0.465610000000     0.128105000000     0.584040000000     0          
O        O      0.400860000000     0.148235000000     0.580000000000     0          
O        O      0.416930000000     0.096715000000     0.545560000000     0          
O        O      0.353560000000     0.190620000000     0.598450000000     0          
O        O      0.372905000000     0.179180000000     0.515360000000     0          
O        O      0.352855000000     0.208155000000     0.443260000000     0          
O        O      0.313280000000     0.212220000000     0.661780000000     0          
O        O      0.285010000000     0.199165000000     0.581560000000     0          
O        O      0.326355000000     0.244315000000     0.589180000000     0          
O        O      0.284725000000     0.217745000000     0.454280000000     0          
O        O      0.250000000000     0.210855000000     0.698850000000     0          
O        O      0.305915000000     0.201470000000     0.750000000000     0          
O        O      0.284515000000     0.161745000000     0.691130000000     0          
O        O      0.250000000000     0.116700000000     0.658660000000     0          
O        O      0.250000000000     0.150095000000     0.585080000000     0          
O        O      0.250000000000     0.172695000000     0.419730000000     0          
O        O      0.250000000000     0.181465000000     0.508510000000     0          
O        O      0.250000000000     0.141405000000     0.344050000000     0          
O        O      0.215185000000     0.398480000000     0.081910000000     0          
O        O      0.166920000000     0.358995000000     0.060890000000     0          
O        O      0.150125000000     0.414730000000     0.064060000000     0          
O        O      0.189320000000     0.394315000000     0.996580000000     0          
O        O      0.034390000000     0.371895000000     0.084040000000     0          
O        O      0.099140000000     0.351765000000     0.080000000000     0          
O        O      0.083070000000     0.403285000000     0.045560000000     0          
O        O      0.146440000000     0.309380000000     0.098450000000     0          
O        O      0.127095000000     0.320820000000     0.015360000000     0          
O        O      0.147145000000     0.291845000000     0.943260000000     0          
O        O      0.186720000000     0.287780000000     0.161780000000     0          
O        O      0.214990000000     0.300835000000     0.081560000000     0          
O        O      0.173645000000     0.255685000000     0.089180000000     0          
O        O      0.215275000000     0.282255000000     0.954280000000     0          
O        O      0.250000000000     0.289145000000     0.198850000000     0          
O        O      0.194085000000     0.298530000000     0.250000000000     0          
O        O      0.215485000000     0.338255000000     0.191130000000     0          
O        O      0.250000000000     0.383300000000     0.158660000000     0          
O        O      0.250000000000     0.349905000000     0.085080000000     0          
O        O      0.250000000000     0.327305000000     0.919730000000     0          
O        O      0.250000000000     0.318535000000     0.008510000000     0          
O        O      0.250000000000     0.358595000000     0.844050000000     0          
O        O      0.215185000000     0.101520000000     0.581910000000     0          
O        O      0.166920000000     0.141005000000     0.560890000000     0          
O        O      0.150125000000     0.085270000000     0.564060000000     0          
O        O      0.189320000000     0.105685000000     0.496580000000     0          
O        O      0.034390000000     0.128105000000     0.584040000000     0          
O        O      0.099140000000     0.148235000000     0.580000000000     0          
O        O      0.083070000000     0.096715000000     0.545560000000     0          
O        O      0.146440000000     0.190620000000     0.598450000000     0          
O        O      0.127095000000     0.179180000000     0.515360000000     0          
O        O      0.147145000000     0.208155000000     0.443260000000     0          
O        O      0.186720000000     0.212220000000     0.661780000000     0          
O        O      0.214990000000     0.199165000000     0.581560000000     0          
O        O      0.173645000000     0.244315000000     0.589180000000     0          
O        O      0.215275000000     0.217745000000     0.454280000000     0          
O        O      0.168725000000     0.250000000000     0.500000000000     0          
O        O      0.215485000000     0.161745000000     0.691130000000     0          
O        O      0.284815000000     0.398480000000     0.081910000000     0          
O        O      0.333080000000     0.358995000000     0.060890000000     0          
O        O      0.349875000000     0.414730000000     0.064060000000     0          
O        O      0.310680000000     0.394315000000     0.996580000000     0          
O        O      0.465610000000     0.371895000000     0.084040000000     0          
O        O      0.400860000000     0.351765000000     0.080000000000     0          
O        O      0.416930000000     0.403285000000     0.045560000000     0          
O        O      0.353560000000     0.309380000000     0.098450000000     0          
O        O      0.372905000000     0.320820000000     0.015360000000     0          
O        O      0.352855000000     0.291845000000     0.943260000000     0          
O        O      0.313280000000     0.287780000000     0.161780000000     0          
O        O      0.285010000000     0.300835000000     0.081560000000     0          
O        O      0.326355000000     0.255685000000     0.089180000000     0          
O        O      0.284725000000     0.282255000000     0.954280000000     0          
O        O      0.331275000000     0.250000000000     0.000000000000     0          
O        O      0.284515000000     0.338255000000     0.191130000000     0          
O        O      0.215185000000     0.398480000000     0.418090000000     0          
O        O      0.166920000000     0.358995000000     0.439110000000     0          
O        O      0.150125000000     0.414730000000     0.435940000000     0          
O        O      0.189320000000     0.394315000000     0.503420000000     0          
O        O      0.034390000000     0.371895000000     0.415960000000     0          
O        O      0.099140000000     0.351765000000     0.420000000000     0          
O        O      0.083070000000     0.403285000000     0.454440000000     0          
O        O      0.146440000000     0.309380000000     0.401550000000     0          
O        O      0.127095000000     0.320820000000     0.484640000000     0          
O        O      0.147145000000     0.291845000000     0.556740000000     0          
O        O      0.186720000000     0.287780000000     0.338220000000     0          
O        O      0.214990000000     0.300835000000     0.418440000000     0          
O        O      0.173645000000     0.255685000000     0.410820000000     0          
O        O      0.215275000000     0.282255000000     0.545720000000     0          
O        O      0.215485000000     0.338255000000     0.308870000000     0          
O        O      0.284815000000     0.101520000000     0.918090000000     0          
O        O      0.333080000000     0.141005000000     0.939110000000     0          
O        O      0.349875000000     0.085270000000     0.935940000000     0          
O        O      0.310680000000     0.105685000000     0.003420000000     0          
O        O      0.465610000000     0.128105000000     0.915960000000     0          
O        O      0.400860000000     0.148235000000     0.920000000000     0          
O        O      0.416930000000     0.096715000000     0.954440000000     0          
O        O      0.353560000000     0.190620000000     0.901550000000     0          
O        O      0.372905000000     0.179180000000     0.984640000000     0          
O        O      0.352855000000     0.208155000000     0.056740000000     0          
O        O      0.313280000000     0.212220000000     0.838220000000     0          
O        O      0.285010000000     0.199165000000     0.918440000000     0          
O        O      0.326355000000     0.244315000000     0.910820000000     0          
O        O      0.284725000000     0.217745000000     0.045720000000     0          
O        O      0.284515000000     0.161745000000     0.808870000000     0          
O        O      0.034815000000     0.648480000000     0.418090000000     0          
O        O      0.083080000000     0.608995000000     0.439110000000     0          
O        O      0.099875000000     0.664730000000     0.435940000000     0          
O        O      0.060680000000     0.644315000000     0.503420000000     0          
O        O      0.215610000000     0.621895000000     0.415960000000     0          
O        O      0.150860000000     0.601765000000     0.420000000000     0          
O        O      0.166930000000     0.653285000000     0.454440000000     0          
O        O      0.103560000000     0.559380000000     0.401550000000     0          
O        O      0.122905000000     0.570820000000     0.484640000000     0          
O        O      0.102855000000     0.541845000000     0.556740000000     0          
O        O      0.063280000000     0.537780000000     0.338220000000     0          
O        O      0.035010000000     0.550835000000     0.418440000000     0          
O        O      0.076355000000     0.505685000000     0.410820000000     0          
O        O      0.034725000000     0.532255000000     0.545720000000     0          
O        O      0.081275000000     0.500000000000     0.500000000000     0          
O        O      0.000000000000     0.539145000000     0.301150000000     0          
O        O      0.055915000000     0.548530000000     0.250000000000     0          
O        O      0.034515000000     0.588255000000     0.308870000000     0          
O        O      0.000000000000     0.633300000000     0.341340000000     0          
O        O      0.000000000000     0.599905000000     0.414920000000     0          
O        O      0.000000000000     0.577305000000     0.580270000000     0          
O        O      0.000000000000     0.568535000000     0.491490000000     0          
O        O      0.000000000000     0.621355000000     0.250000000000     0          
O        O      0.000000000000     0.608595000000     0.655950000000     0          
O        O      0.465185000000     0.851520000000     0.918090000000     0          
O        O      0.416920000000     0.891005000000     0.939110000000     0          
O        O      0.400125000000     0.835270000000     0.935940000000     0          
O        O      0.439320000000     0.855685000000     0.003420000000     0          
O        O      0.284390000000     0.878105000000     0.915960000000     0          
O        O      0.349140000000     0.898235000000     0.920000000000     0          
O        O      0.333070000000     0.846715000000     0.954440000000     0          
O        O      0.396440000000     0.940620000000     0.901550000000     0          
O        O      0.377095000000     0.929180000000     0.984640000000     0          
O        O      0.397145000000     0.958155000000     0.056740000000     0          
O        O      0.436720000000     0.962220000000     0.838220000000     0          
O        O      0.464990000000     0.949165000000     0.918440000000     0          
O        O      0.423645000000     0.994315000000     0.910820000000     0          
O        O      0.465275000000     0.967745000000     0.045720000000     0          
O        O      0.418725000000     0.500000000000     0.000000000000     0          
O        O      0.000000000000     0.960855000000     0.801150000000     0          
O        O      0.444085000000     0.951470000000     0.750000000000     0          
O        O      0.465485000000     0.911745000000     0.808870000000     0          
O        O      0.000000000000     0.866700000000     0.841340000000     0          
O        O      0.000000000000     0.900095000000     0.914920000000     0          
O        O      0.000000000000     0.922695000000     0.080270000000     0          
O        O      0.000000000000     0.931465000000     0.991490000000     0          
O        O      0.000000000000     0.878645000000     0.750000000000     0          
O        O      0.000000000000     0.891405000000     0.155950000000     0          
O        O      0.034815000000     0.851520000000     0.581910000000     0          
O        O      0.083080000000     0.891005000000     0.560890000000     0          
O        O      0.099875000000     0.835270000000     0.564060000000     0          
O        O      0.060680000000     0.855685000000     0.496580000000     0          
O        O      0.215610000000     0.878105000000     0.584040000000     0          
O        O      0.150860000000     0.898235000000     0.580000000000     0          
O        O      0.166930000000     0.846715000000     0.545560000000     0          
O        O      0.103560000000     0.940620000000     0.598450000000     0          
O        O      0.122905000000     0.929180000000     0.515360000000     0          
O        O      0.102855000000     0.958155000000     0.443260000000     0          
O        O      0.063280000000     0.962220000000     0.661780000000     0          
O        O      0.035010000000     0.949165000000     0.581560000000     0          
O        O      0.076355000000     0.994315000000     0.589180000000     0          
O        O      0.034725000000     0.967745000000     0.454280000000     0          
O        O      0.000000000000     0.960855000000     0.698850000000     0          
O        O      0.055915000000     0.951470000000     0.750000000000     0          
O        O      0.034515000000     0.911745000000     0.691130000000     0          
O        O      0.000000000000     0.866700000000     0.658660000000     0          
O        O      0.000000000000     0.900095000000     0.585080000000     0          
O        O      0.000000000000     0.922695000000     0.419730000000     0          
O        O      0.000000000000     0.931465000000     0.508510000000     0          
O        O      0.000000000000     0.891405000000     0.344050000000     0          
O        O      0.465185000000     0.648480000000     0.081910000000     0          
O        O      0.416920000000     0.608995000000     0.060890000000     0          
O        O      0.400125000000     0.664730000000     0.064060000000     0          
O        O      0.439320000000     0.644315000000     0.996580000000     0          
O        O      0.284390000000     0.621895000000     0.084040000000     0          
O        O      0.349140000000     0.601765000000     0.080000000000     0          
O        O      0.333070000000     0.653285000000     0.045560000000     0          
O        O      0.396440000000     0.559380000000     0.098450000000     0          
O        O      0.377095000000     0.570820000000     0.015360000000     0          
O        O      0.397145000000     0.541845000000     0.943260000000     0          
O        O      0.436720000000     0.537780000000     0.161780000000     0          
O        O      0.464990000000     0.550835000000     0.081560000000     0          
O        O      0.423645000000     0.505685000000     0.089180000000     0          
O        O      0.465275000000     0.532255000000     0.954280000000     0          
O        O      0.000000000000     0.539145000000     0.198850000000     0          
O        O      0.444085000000     0.548530000000     0.250000000000     0          
O        O      0.465485000000     0.588255000000     0.191130000000     0          
O        O      0.000000000000     0.633300000000     0.158660000000     0          
O        O      0.000000000000     0.599905000000     0.085080000000     0          
O        O      0.000000000000     0.577305000000     0.919730000000     0          
O        O      0.000000000000     0.568535000000     0.008510000000     0          
O        O      0.000000000000     0.608595000000     0.844050000000     0          
O        O      0.465185000000     0.851520000000     0.581910000000     0          
O        O      0.416920000000     0.891005000000     0.560890000000     0          
O        O      0.400125000000     0.835270000000     0.564060000000     0          
O        O      0.439320000000     0.855685000000     0.496580000000     0          
O        O      0.284390000000     0.878105000000     0.584040000000     0          
O        O      0.349140000000     0.898235000000     0.580000000000     0          
O        O      0.333070000000     0.846715000000     0.545560000000     0          
O        O      0.396440000000     0.940620000000     0.598450000000     0          
O        O      0.377095000000     0.929180000000     0.515360000000     0          
O        O      0.397145000000     0.958155000000     0.443260000000     0          
O        O      0.436720000000     0.962220000000     0.661780000000     0          
O        O      0.464990000000     0.949165000000     0.581560000000     0          
O        O      0.423645000000     0.994315000000     0.589180000000     0          
O        O      0.465275000000     0.967745000000     0.454280000000     0          
O        O      0.418725000000     0.500000000000     0.500000000000     0          
O        O      0.465485000000     0.911745000000     0.691130000000     0          
O        O      0.034815000000     0.648480000000     0.081910000000     0          
O        O      0.083080000000     0.608995000000     0.060890000000     0          
O        O      0.099875000000     0.664730000000     0.064060000000     0          
O        O      0.060680000000     0.644315000000     0.996580000000     0          
O        O      0.215610000000     0.621895000000     0.084040000000     0          
O        O      0.150860000000     0.601765000000     0.080000000000     0          
O        O      0.166930000000     0.653285000000     0.045560000000     0          
O        O      0.103560000000     0.559380000000     0.098450000000     0          
O        O      0.122905000000     0.570820000000     0.015360000000     0          
O        O      0.102855000000     0.541845000000     0.943260000000     0          
O        O      0.063280000000     0.537780000000     0.161780000000     0          
O        O      0.035010000000     0.550835000000     0.081560000000     0          
O        O      0.076355000000     0.505685000000     0.089180000000     0          
O        O      0.034725000000     0.532255000000     0.954280000000     0          
O        O      0.081275000000     0.500000000000     0.000000000000     0          
O        O      0.034515000000     0.588255000000     0.191130000000     0          
O        O      0.465185000000     0.648480000000     0.418090000000     0          
O        O      0.416920000000     0.608995000000     0.439110000000     0          
O        O      0.400125000000     0.664730000000     0.435940000000     0          
O        O      0.439320000000     0.644315000000     0.503420000000     0          
O        O      0.284390000000     0.621895000000     0.415960000000     0          
O        O      0.349140000000     0.601765000000     0.420000000000     0          
O        O      0.333070000000     0.653285000000     0.454440000000     0          
O        O      0.396440000000     0.559380000000     0.401550000000     0          
O        O      0.377095000000     0.570820000000     0.484640000000     0          
O        O      0.397145000000     0.541845000000     0.556740000000     0          
O        O      0.436720000000     0.537780000000     0.338220000000     0          
O        O      0.464990000000     0.550835000000     0.418440000000     0          
O        O      0.423645000000     0.505685000000     0.410820000000     0          
O        O      0.465275000000     0.532255000000     0.545720000000     0          
O        O      0.465485000000     0.588255000000     0.308870000000     0          
O        O      0.034815000000     0.851520000000     0.918090000000     0          
O        O      0.083080000000     0.891005000000     0.939110000000     0          
O        O      0.099875000000     0.835270000000     0.935940000000     0          
O        O      0.060680000000     0.855685000000     0.003420000000     0          
O        O      0.215610000000     0.878105000000     0.915960000000     0          
O        O      0.150860000000     0.898235000000     0.920000000000     0          
O        O      0.166930000000     0.846715000000     0.954440000000     0          
O        O      0.103560000000     0.940620000000     0.901550000000     0          
O        O      0.122905000000     0.929180000000     0.984640000000     0          
O        O      0.102855000000     0.958155000000     0.056740000000     0          
O        O      0.063280000000     0.962220000000     0.838220000000     0          
O        O      0.035010000000     0.949165000000     0.918440000000     0          
O        O      0.076355000000     0.994315000000     0.910820000000     0          
O        O      0.034725000000     0.967745000000     0.045720000000     0          
O        O      0.034515000000     0.911745000000     0.808870000000     0          
O        O      0.284815000000     0.898480000000     0.418090000000     0          
O        O      0.333080000000     0.858995000000     0.439110000000     0          
O        O      0.349875000000     0.914730000000     0.435940000000     0          
O        O      0.310680000000     0.894315000000     0.503420000000     0          
O        O      0.465610000000     0.871895000000     0.415960000000     0          
O        O      0.400860000000     0.851765000000     0.420000000000     0          
O        O      0.416930000000     0.903285000000     0.454440000000     0          
O        O      0.353560000000     0.809380000000     0.401550000000     0          
O        O      0.372905000000     0.820820000000     0.484640000000     0          
O        O      0.352855000000     0.791845000000     0.556740000000     0          
O        O      0.313280000000     0.787780000000     0.338220000000     0          
O        O      0.285010000000     0.800835000000     0.418440000000     0          
O        O      0.326355000000     0.755685000000     0.410820000000     0          
O        O      0.284725000000     0.782255000000     0.545720000000     0          
O        O      0.331275000000     0.750000000000     0.500000000000     0          
O        O      0.250000000000     0.789145000000     0.301150000000     0          
O        O      0.305915000000     0.798530000000     0.250000000000     0          
O        O      0.284515000000     0.838255000000     0.308870000000     0          
O        O      0.250000000000     0.883300000000     0.341340000000     0          
O        O      0.250000000000     0.849905000000     0.414920000000     0          
O        O      0.250000000000     0.827305000000     0.580270000000     0          
O        O      0.250000000000     0.818535000000     0.491490000000     0          
O        O      0.250000000000     0.871355000000     0.250000000000     0          
O        O      0.250000000000     0.858595000000     0.655950000000     0          
O        O      0.215185000000     0.601520000000     0.918090000000     0          
O        O      0.166920000000     0.641005000000     0.939110000000     0          
O        O      0.150125000000     0.585270000000     0.935940000000     0          
O        O      0.189320000000     0.605685000000     0.003420000000     0          
O        O      0.034390000000     0.628105000000     0.915960000000     0          
O        O      0.099140000000     0.648235000000     0.920000000000     0          
O        O      0.083070000000     0.596715000000     0.954440000000     0          
O        O      0.146440000000     0.690620000000     0.901550000000     0          
O        O      0.127095000000     0.679180000000     0.984640000000     0          
O        O      0.147145000000     0.708155000000     0.056740000000     0          
O        O      0.186720000000     0.712220000000     0.838220000000     0          
O        O      0.214990000000     0.699165000000     0.918440000000     0          
O        O      0.173645000000     0.744315000000     0.910820000000     0          
O        O      0.215275000000     0.717745000000     0.045720000000     0          
O        O      0.168725000000     0.750000000000     0.000000000000     0          
O        O      0.250000000000     0.710855000000     0.801150000000     0          
O        O      0.194085000000     0.701470000000     0.750000000000     0          
O        O      0.215485000000     0.661745000000     0.808870000000     0          
O        O      0.250000000000     0.616700000000     0.841340000000     0          
O        O      0.250000000000     0.650095000000     0.914920000000     0          
O        O      0.250000000000     0.672695000000     0.080270000000     0          
O        O      0.250000000000     0.681465000000     0.991490000000     0          
O        O      0.250000000000     0.628645000000     0.750000000000     0          
O        O      0.250000000000     0.641405000000     0.155950000000     0          
O        O      0.284815000000     0.601520000000     0.581910000000     0          
O        O      0.333080000000     0.641005000000     0.560890000000     0          
O        O      0.349875000000     0.585270000000     0.564060000000     0          
O        O      0.310680000000     0.605685000000     0.496580000000     0          
O        O      0.465610000000     0.628105000000     0.584040000000     0          
O        O      0.400860000000     0.648235000000     0.580000000000     0          
O        O      0.416930000000     0.596715000000     0.545560000000     0          
O        O      0.353560000000     0.690620000000     0.598450000000     0          
O        O      0.372905000000     0.679180000000     0.515360000000     0          
O        O      0.352855000000     0.708155000000     0.443260000000     0          
O        O      0.313280000000     0.712220000000     0.661780000000     0          
O        O      0.285010000000     0.699165000000     0.581560000000     0          
O        O      0.326355000000     0.744315000000     0.589180000000     0          
O        O      0.284725000000     0.717745000000     0.454280000000     0          
O        O      0.250000000000     0.710855000000     0.698850000000     0          
O        O      0.305915000000     0.701470000000     0.750000000000     0          
O        O      0.284515000000     0.661745000000     0.691130000000     0          
O        O      0.250000000000     0.616700000000     0.658660000000     0          
O        O      0.250000000000     0.650095000000     0.585080000000     0          
O        O      0.250000000000     0.672695000000     0.419730000000     0          
O        O      0.250000000000     0.681465000000     0.508510000000     0          
O        O      0.250000000000     0.641405000000     0.344050000000     0          
O        O      0.215185000000     0.898480000000     0.081910000000     0          
O        O      0.166920000000     0.858995000000     0.060890000000     0          
O        O      0.150125000000     0.914730000000     0.064060000000     0          
O        O      0.189320000000     0.894315000000     0.996580000000     0          
O        O      0.034390000000     0.871895000000     0.084040000000     0          
O        O      0.099140000000     0.851765000000     0.080000000000     0          
O        O      0.083070000000     0.903285000000     0.045560000000     0          
O        O      0.146440000000     0.809380000000     0.098450000000     0          
O        O      0.127095000000     0.820820000000     0.015360000000     0          
O        O      0.147145000000     0.791845000000     0.943260000000     0          
O        O      0.186720000000     0.787780000000     0.161780000000     0          
O        O      0.214990000000     0.800835000000     0.081560000000     0          
O        O      0.173645000000     0.755685000000     0.089180000000     0          
O        O      0.215275000000     0.782255000000     0.954280000000     0          
O        O      0.250000000000     0.789145000000     0.198850000000     0          
O        O      0.194085000000     0.798530000000     0.250000000000     0          
O        O      0.215485000000     0.838255000000     0.191130000000     0          
O        O      0.250000000000     0.883300000000     0.158660000000     0          
O        O      0.250000000000     0.849905000000     0.085080000000     0          
O        O      0.250000000000     0.827305000000     0.919730000000     0          
O        O      0.250000000000     0.818535000000     0.008510000000     0          
O        O      0.250000000000     0.858595000000     0.844050000000     0          
O        O      0.215185000000     0.601520000000     0.581910000000     0          
O        O      0.166920000000     0.641005000000     0.560890000000     0          
O        O      0.150125000000     0.585270000000     0.564060000000     0          
O        O      0.189320000000     0.605685000000     0.496580000000     0          
O        O      0.034390000000     0.628105000000     0.584040000000     0          
O        O      0.099140000000     0.648235000000     0.580000000000     0          
O        O      0.083070000000     0.596715000000     0.545560000000     0          
O        O      0.146440000000     0.690620000000     0.598450000000     0          
O        O      0.127095000000     0.679180000000     0.515360000000     0          
O        O      0.147145000000     0.708155000000     0.443260000000     0          
O        O      0.186720000000     0.712220000000     0.661780000000     0          
O        O      0.214990000000     0.699165000000     0.581560000000     0          
O        O      0.173645000000     0.744315000000     0.589180000000     0          
O        O      0.215275000000     0.717745000000     0.454280000000     0          
O        O      0.168725000000     0.750000000000     0.500000000000     0          
O        O      0.215485000000     0.661745000000     0.691130000000     0          
O        O      0.284815000000     0.898480000000     0.081910000000     0          
O        O      0.333080000000     0.858995000000     0.060890000000     0          
O        O      0.349875000000     0.914730000000     0.064060000000     0          
O        O      0.310680000000     0.894315000000     0.996580000000     0          
O        O      0.465610000000     0.871895000000     0.084040000000     0          
O        O      0.400860000000     0.851765000000     0.080000000000     0          
O        O      0.416930000000     0.903285000000     0.045560000000     0          
O        O      0.353560000000     0.809380000000     0.098450000000     0          
O        O      0.372905000000     0.820820000000     0.015360000000     0          
O        O      0.352855000000     0.791845000000     0.943260000000     0          
O        O      0.313280000000     0.787780000000     0.161780000000     0          
O        O      0.285010000000     0.800835000000     0.081560000000     0          
O        O      0.326355000000     0.755685000000     0.089180000000     0          
O        O      0.284725000000     0.782255000000     0.954280000000     0          
O        O      0.331275000000     0.750000000000     0.000000000000     0          
O        O      0.284515000000     0.838255000000     0.191130000000     0          
O        O      0.215185000000     0.898480000000     0.418090000000     0          
O        O      0.166920000000     0.858995000000     0.439110000000     0          
O        O      0.150125000000     0.914730000000     0.435940000000     0          
O        O      0.189320000000     0.894315000000     0.503420000000     0          
O        O      0.034390000000     0.871895000000     0.415960000000     0          
O        O      0.099140000000     0.851765000000     0.420000000000     0          
O        O      0.083070000000     0.903285000000     0.454440000000     0          
O        O      0.146440000000     0.809380000000     0.401550000000     0          
O        O      0.127095000000     0.820820000000     0.484640000000     0          
O        O      0.147145000000     0.791845000000     0.556740000000     0          
O        O      0.186720000000     0.787780000000     0.338220000000     0          
O        O      0.214990000000     0.800835000000     0.418440000000     0          
O        O      0.173645000000     0.755685000000     0.410820000000     0          
O        O      0.215275000000     0.782255000000     0.545720000000     0          
O        O      0.215485000000     0.838255000000     0.308870000000     0          
O        O      0.284815000000     0.601520000000     0.918090000000     0          
O        O      0.333080000000     0.641005000000     0.939110000000     0          
O        O      0.349875000000     0.585270000000     0.935940000000     0          
O        O      0.310680000000     0.605685000000     0.003420000000     0          
O        O      0.465610000000     0.628105000000     0.915960000000     0          
O        O      0.400860000000     0.648235000000     0.920000000000     0          
O        O      0.416930000000     0.596715000000     0.954440000000     0          
O        O      0.353560000000     0.690620000000     0.901550000000     0          
O        O      0.372905000000     0.679180000000     0.984640000000     0          
O        O      0.352855000000     0.708155000000     0.056740000000     0          
O        O      0.313280000000     0.712220000000     0.838220000000     0          
O        O      0.285010000000     0.699165000000     0.918440000000     0          
O        O      0.326355000000     0.744315000000     0.910820000000     0          
O        O      0.284725000000     0.717745000000     0.045720000000     0          
O        O      0.284515000000     0.661745000000     0.808870000000     0          
O        O      0.534815000000     0.148480000000     0.418090000000     0          
O        O      0.583080000000     0.108995000000     0.439110000000     0          
O        O      0.599875000000     0.164730000000     0.435940000000     0          
O        O      0.560680000000     0.144315000000     0.503420000000     0          
O        O      0.715610000000     0.121895000000     0.415960000000     0          
O        O      0.650860000000     0.101765000000     0.420000000000     0          
O        O      0.666930000000     0.153285000000     0.454440000000     0          
O        O      0.603560000000     0.059380000000     0.401550000000     0          
O        O      0.622905000000     0.070820000000     0.484640000000     0          
O        O      0.602855000000     0.041845000000     0.556740000000     0          
O        O      0.563280000000     0.037780000000     0.338220000000     0          
O        O      0.535010000000     0.050835000000     0.418440000000     0          
O        O      0.576355000000     0.005685000000     0.410820000000     0          
O        O      0.534725000000     0.032255000000     0.545720000000     0          
O        O      0.581275000000     0.000000000000     0.500000000000     0          
O        O      0.500000000000     0.039145000000     0.301150000000     0          
O        O      0.555915000000     0.048530000000     0.250000000000     0          
O        O      0.534515000000     0.088255000000     0.308870000000     0          
O        O      0.500000000000     0.133300000000     0.341340000000     0          
O        O      0.500000000000     0.099905000000     0.414920000000     0          
O        O      0.500000000000     0.077305000000     0.580270000000     0          
O        O      0.500000000000     0.068535000000     0.491490000000     0          
O        O      0.500000000000     0.121355000000     0.250000000000     0          
O        O      0.500000000000     0.108595000000     0.655950000000     0          
O        O      0.965185000000     0.351520000000     0.918090000000     0          
O        O      0.916920000000     0.391005000000     0.939110000000     0          
O        O      0.900125000000     0.335270000000     0.935940000000     0          
O        O      0.939320000000     0.355685000000     0.003420000000     0          
O        O      0.784390000000     0.378105000000     0.915960000000     0          
O        O      0.849140000000     0.398235000000     0.920000000000     0          
O        O      0.833070000000     0.346715000000     0.954440000000     0          
O        O      0.896440000000     0.440620000000     0.901550000000     0          
O        O      0.877095000000     0.429180000000     0.984640000000     0          
O        O      0.897145000000     0.458155000000     0.056740000000     0          
O        O      0.936720000000     0.462220000000     0.838220000000     0          
O        O      0.964990000000     0.449165000000     0.918440000000     0          
O        O      0.923645000000     0.494315000000     0.910820000000     0          
O        O      0.965275000000     0.467745000000     0.045720000000     0          
O        O      0.918725000000     0.000000000000     0.000000000000     0          
O        O      0.500000000000     0.460855000000     0.801150000000     0          
O        O      0.944085000000     0.451470000000     0.750000000000     0          
O        O      0.965485000000     0.411745000000     0.808870000000     0          
O        O      0.500000000000     0.366700000000     0.841340000000     0          
O        O      0.500000000000     0.400095000000     0.914920000000     0          
O        O      0.500000000000     0.422695000000     0.080270000000     0          
O        O      0.500000000000     0.431465000000     0.991490000000     0          
O        O      0.500000000000     0.378645000000     0.750000000000     0          
O        O      0.500000000000     0.391405000000     0.155950000000     0          
O        O      0.534815000000     0.351520000000     0.581910000000     0          
O        O      0.583080000000     0.391005000000     0.560890000000     0          
O        O      0.599875000000     0.335270000000     0.564060000000     0          
O        O      0.560680000000     0.355685000000     0.496580000000     0          
O        O      0.715610000000     0.378105000000     0.584040000000     0          
O        O      0.650860000000     0.398235000000     0.580000000000     0          
O        O      0.666930000000     0.346715000000     0.545560000000     0          
O        O      0.603560000000     0.440620000000     0.598450000000     0          
O        O      0.622905000000     0.429180000000     0.515360000000     0          
O        O      0.602855000000     0.458155000000     0.443260000000     0          
O        O      0.563280000000     0.462220000000     0.661780000000     0          
O        O      0.535010000000     0.449165000000     0.581560000000     0          
O        O      0.576355000000     0.494315000000     0.589180000000     0          
O        O      0.534725000000     0.467745000000     0.454280000000     0          
O        O      0.500000000000     0.460855000000     0.698850000000     0          
O        O      0.555915000000     0.451470000000     0.750000000000     0          
O        O      0.534515000000     0.411745000000     0.691130000000     0          
O        O      0.500000000000     0.366700000000     0.658660000000     0          
O        O      0.500000000000     0.400095000000     0.585080000000     0          
O        O      0.500000000000     0.422695000000     0.419730000000     0          
O        O      0.500000000000     0.431465000000     0.508510000000     0          
O        O      0.500000000000     0.391405000000     0.344050000000     0          
O        O      0.965185000000     0.148480000000     0.081910000000     0          
O        O      0.916920000000     0.108995000000     0.060890000000     0          
O        O      0.900125000000     0.164730000000     0.064060000000     0          
O        O      0.939320000000     0.144315000000     0.996580000000     0          
O        O      0.784390000000     0.121895000000     0.084040000000     0          
O        O      0.849140000000     0.101765000000     0.080000000000     0          
O        O      0.833070000000     0.153285000000     0.045560000000     0          
O        O      0.896440000000     0.059380000000     0.098450000000     0          
O        O      0.877095000000     0.070820000000     0.015360000000     0          
O        O      0.897145000000     0.041845000000     0.943260000000     0          
O        O      0.936720000000     0.037780000000     0.161780000000     0          
O        O      0.964990000000     0.050835000000     0.081560000000     0          
O        O      0.923645000000     0.005685000000     0.089180000000     0          
O        O      0.965275000000     0.032255000000     0.954280000000     0          
O        O      0.500000000000     0.039145000000     0.198850000000     0          
O        O      0.944085000000     0.048530000000     0.250000000000     0          
O        O      0.965485000000     0.088255000000     0.191130000000     0          
O        O      0.500000000000     0.133300000000     0.158660000000     0          
O        O      0.500000000000     0.099905000000     0.085080000000     0          
O        O      0.500000000000     0.077305000000     0.919730000000     0          
O        O      0.500000000000     0.068535000000     0.008510000000     0          
O        O      0.500000000000     0.108595000000     0.844050000000     0          
O        O      0.965185000000     0.351520000000     0.581910000000     0          
O        O      0.916920000000     0.391005000000     0.560890000000     0          
O        O      0.900125000000     0.335270000000     0.564060000000     0          
O        O      0.939320000000     0.355685000000     0.496580000000     0          
O        O      0.784390000000     0.378105000000     0.584040000000     0          
O        O      0.849140000000     0.398235000000     0.580000000000     0          
O        O      0.833070000000     0.346715000000     0.545560000000     0          
O        O      0.896440000000     0.440620000000     0.598450000000     0          
O        O      0.877095000000     0.429180000000     0.515360000000     0          
O        O      0.897145000000     0.458155000000     0.443260000000     0          
O        O      0.936720000000     0.462220000000     0.661780000000     0          
O        O      0.964990000000     0.449165000000     0.581560000000     0          
O        O      0.923645000000     0.494315000000     0.589180000000     0          
O        O      0.965275000000     0.467745000000     0.454280000000     0          
O        O      0.918725000000     0.000000000000     0.500000000000     0          
O        O      0.965485000000     0.411745000000     0.691130000000     0          
O        O      0.534815000000     0.148480000000     0.081910000000     0          
O        O      0.583080000000     0.108995000000     0.060890000000     0          
O        O      0.599875000000     0.164730000000     0.064060000000     0          
O        O      0.560680000000     0.144315000000     0.996580000000     0          
O        O      0.715610000000     0.121895000000     0.084040000000     0          
O        O      0.650860000000     0.101765000000     0.080000000000     0          
O        O      0.666930000000     0.153285000000     0.045560000000     0          
O        O      0.603560000000     0.059380000000     0.098450000000     0          
O        O      0.622905000000     0.070820000000     0.015360000000     0          
O        O      0.602855000000     0.041845000000     0.943260000000     0          
O        O      0.563280000000     0.037780000000     0.161780000000     0          
O        O      0.535010000000     0.050835000000     0.081560000000     0          
O        O      0.576355000000     0.005685000000     0.089180000000     0          
O        O      0.534725000000     0.032255000000     0.954280000000     0          
O        O      0.581275000000     0.000000000000     0.000000000000     0          
O        O      0.534515000000     0.088255000000     0.191130000000     0          
O        O      0.965185000000     0.148480000000     0.418090000000     0          
O        O      0.916920000000     0.108995000000     0.439110000000     0          
O        O      0.900125000000     0.164730000000     0.435940000000     0          
O        O      0.939320000000     0.144315000000     0.503420000000     0          
O        O      0.784390000000     0.121895000000     0.415960000000     0          
O        O      0.849140000000     0.101765000000     0.420000000000     0          
O        O      0.833070000000     0.153285000000     0.454440000000     0          
O        O      0.896440000000     0.059380000000     0.401550000000     0          
O        O      0.877095000000     0.070820000000     0.484640000000     0          
O        O      0.897145000000     0.041845000000     0.556740000000     0          
O        O      0.936720000000     0.037780000000     0.338220000000     0          
O        O      0.964990000000     0.050835000000     0.418440000000     0          
O        O      0.923645000000     0.005685000000     0.410820000000     0          
O        O      0.965275000000     0.032255000000     0.545720000000     0          
O        O      0.965485000000     0.088255000000     0.308870000000     0          
O        O      0.534815000000     0.351520000000     0.918090000000     0          
O        O      0.583080000000     0.391005000000     0.939110000000     0          
O        O      0.599875000000     0.335270000000     0.935940000000     0          
O        O      0.560680000000     0.355685000000     0.003420000000     0          
O        O      0.715610000000     0.378105000000     0.915960000000     0          
O        O      0.650860000000     0.398235000000     0.920000000000     0          
O        O      0.666930000000     0.346715000000     0.954440000000     0          
O        O      0.603560000000     0.440620000000     0.901550000000     0          
O        O      0.622905000000     0.429180000000     0.984640000000     0          
O        O      0.602855000000     0.458155000000     0.056740000000     0          
O        O      0.563280000000     0.462220000000     0.838220000000     0          
O        O      0.535010000000     0.449165000000     0.918440000000     0          
O        O      0.576355000000     0.494315000000     0.910820000000     0          
O        O      0.534725000000     0.467745000000     0.045720000000     0          
O        O      0.534515000000     0.411745000000     0.808870000000     0          
O        O      0.784815000000     0.398480000000     0.418090000000     0          
O        O      0.833080000000     0.358995000000     0.439110000000     0          
O        O      0.849875000000     0.414730000000     0.435940000000     0          
O        O      0.810680000000     0.394315000000     0.503420000000     0          
O        O      0.965610000000     0.371895000000     0.415960000000     0          
O        O      0.900860000000     0.351765000000     0.420000000000     0          
O        O      0.916930000000     0.403285000000     0.454440000000     0          
O        O      0.853560000000     0.309380000000     0.401550000000     0          
O        O      0.872905000000     0.320820000000     0.484640000000     0          
O        O      0.852855000000     0.291845000000     0.556740000000     0          
O        O      0.813280000000     0.287780000000     0.338220000000     0          
O        O      0.785010000000     0.300835000000     0.418440000000     0          
O        O      0.826355000000     0.255685000000     0.410820000000     0          
O        O      0.784725000000     0.282255000000     0.545720000000     0          
O        O      0.831275000000     0.250000000000     0.500000000000     0          
O        O      0.750000000000     0.289145000000     0.301150000000     0          
O        O      0.805915000000     0.298530000000     0.250000000000     0          
O        O      0.784515000000     0.338255000000     0.308870000000     0          
O        O      0.750000000000     0.383300000000     0.341340000000     0          
O        O      0.750000000000     0.349905000000     0.414920000000     0          
O        O      0.750000000000     0.327305000000     0.580270000000     0          
O        O      0.750000000000     0.318535000000     0.491490000000     0          
O        O      0.750000000000     0.371355000000     0.250000000000     0          
O        O      0.750000000000     0.358595000000     0.655950000000     0          
O        O      0.715185000000     0.101520000000     0.918090000000     0          
O        O      0.666920000000     0.141005000000     0.939110000000     0          
O        O      0.650125000000     0.085270000000     0.935940000000     0          
O        O      0.689320000000     0.105685000000     0.003420000000     0          
O        O      0.534390000000     0.128105000000     0.915960000000     0          
O        O      0.599140000000     0.148235000000     0.920000000000     0          
O        O      0.583070000000     0.096715000000     0.954440000000     0          
O        O      0.646440000000     0.190620000000     0.901550000000     0          
O        O      0.627095000000     0.179180000000     0.984640000000     0          
O        O      0.647145000000     0.208155000000     0.056740000000     0          
O        O      0.686720000000     0.212220000000     0.838220000000     0          
O        O      0.714990000000     0.199165000000     0.918440000000     0          
O        O      0.673645000000     0.244315000000     0.910820000000     0          
O        O      0.715275000000     0.217745000000     0.045720000000     0          
O        O      0.668725000000     0.250000000000     0.000000000000     0          
O        O      0.750000000000     0.210855000000     0.801150000000     0          
O        O      0.694085000000     0.201470000000     0.750000000000     0          
O        O      0.715485000000     0.161745000000     0.808870000000     0          
O        O      0.750000000000     0.116700000000     0.841340000000     0          
O        O      0.750000000000     0.150095000000     0.914920000000     0          
O        O      0.750000000000     0.172695000000     0.080270000000     0          
O        O      0.750000000000     0.181465000000     0.991490000000     0          
O        O      0.750000000000     0.128645000000     0.750000000000     0          
O        O      0.750000000000     0.141405000000     0.155950000000     0          
O        O      0.784815000000     0.101520000000     0.581910000000     0          
O        O      0.833080000000     0.141005000000     0.560890000000     0          
O        O      0.849875000000     0.085270000000     0.564060000000     0          
O        O      0.810680000000     0.105685000000     0.496580000000     0          
O        O      0.965610000000     0.128105000000     0.584040000000     0          
O        O      0.900860000000     0.148235000000     0.580000000000     0          
O        O      0.916930000000     0.096715000000     0.545560000000     0          
O        O      0.853560000000     0.190620000000     0.598450000000     0          
O        O      0.872905000000     0.179180000000     0.515360000000     0          
O        O      0.852855000000     0.208155000000     0.443260000000     0          
O        O      0.813280000000     0.212220000000     0.661780000000     0          
O        O      0.785010000000     0.199165000000     0.581560000000     0          
O        O      0.826355000000     0.244315000000     0.589180000000     0          
O        O      0.784725000000     0.217745000000     0.454280000000     0          
O        O      0.750000000000     0.210855000000     0.698850000000     0          
O        O      0.805915000000     0.201470000000     0.750000000000     0          
O        O      0.784515000000     0.161745000000     0.691130000000     0          
O        O      0.750000000000     0.116700000000     0.658660000000     0          
O        O      0.750000000000     0.150095000000     0.585080000000     0          
O        O      0.750000000000     0.172695000000     0.419730000000     0          
O        O      0.750000000000     0.181465000000     0.508510000000     0          
O        O      0.750000000000     0.141405000000     0.344050000000     0          
O        O      0.715185000000     0.398480000000     0.081910000000     0          
O        O      0.666920000000     0.358995000000     0.060890000000     0          
O        O      0.650125000000     0.414730000000     0.064060000000     0          
O        O      0.689320000000     0.394315000000     0.996580000000     0          
O        O      0.534390000000     0.371895000000     0.084040000000     0          
O        O      0.599140000000     0.351765000000     0.080000000000     0          
O        O      0.583070000000     0.403285000000     0.045560000000     0          
O        O      0.646440000000     0.309380000000     0.098450000000     0          
O        O      0.627095000000     0.320820000000     0.015360000000     0          
O        O      0.647145000000     0.291845000000     0.943260000000     0          
O        O      0.686720000000     0.287780000000     0.161780000000     0          
O        O      0.714990000000     0.300835000000     0.081560000000     0          
O        O      0.673645000000     0.255685000000     0.089180000000     0          
O        O      0.715275000000     0.282255000000     0.954280000000     0          
O        O      0.750000000000     0.289145000000     0.198850000000     0          
O        O      0.694085000000     0.298530000000     0.250000000000     0          
O        O      0.715485000000     0.338255000000     0.191130000000     0          
O        O      0.750000000000     0.383300000000     0.158660000000     0          
O        O      0.750000000000     0.349905000000     0.085080000000     0          
O        O      0.750000000000     0.327305000000     0.919730000000     0          
O        O      0.750000000000     0.318535000000     0.008510000000     0          
O        O      0.750000000000     0.358595000000     0.844050000000     0          
O        O      0.715185000000     0.101520000000     0.581910000000     0          
O        O      0.666920000000     0.141005000000     0.560890000000     0          
O        O      0.650125000000     0.085270000000     0.564060000000     0          
O        O      0.689320000000     0.105685000000     0.496580000000     0          
O        O      0.534390000000     0.128105000000     0.584040000000     0          
O        O      0.599140000000     0.148235000000     0.580000000000     0          
O        O      0.583070000000     0.096715000000     0.545560000000     0          
O        O      0.646440000000     0.190620000000     0.598450000000     0          
O        O      0.627095000000     0.179180000000     0.515360000000     0          
O        O      0.647145000000     0.208155000000     0.443260000000     0          
O        O      0.686720000000     0.212220000000     0.661780000000     0          
O        O      0.714990000000     0.199165000000     0.581560000000     0          
O        O      0.673645000000     0.244315000000     0.589180000000     0          
O        O      0.715275000000     0.217745000000     0.454280000000     0          
O        O      0.668725000000     0.250000000000     0.500000000000     0          
O        O      0.715485000000     0.161745000000     0.691130000000     0          
O        O      0.784815000000     0.398480000000     0.081910000000     0          
O        O      0.833080000000     0.358995000000     0.060890000000     0          
O        O      0.849875000000     0.414730000000     0.064060000000     0          
O        O      0.810680000000     0.394315000000     0.996580000000     0          
O        O      0.965610000000     0.371895000000     0.084040000000     0          
O        O      0.900860000000     0.351765000000     0.080000000000     0          
O        O      0.916930000000     0.403285000000     0.045560000000     0          
O        O      0.853560000000     0.309380000000     0.098450000000     0          
O        O      0.872905000000     0.320820000000     0.015360000000     0          
O        O      0.852855000000     0.291845000000     0.943260000000     0          
O        O      0.813280000000     0.287780000000     0.161780000000     0          
O        O      0.785010000000     0.300835000000     0.081560000000     0          
O        O      0.826355000000     0.255685000000     0.089180000000     0          
O        O      0.784725000000     0.282255000000     0.954280000000     0          
O        O      0.831275000000     0.250000000000     0.000000000000     0          
O        O      0.784515000000     0.338255000000     0.191130000000     0          
O        O      0.715185000000     0.398480000000     0.418090000000     0          
O        O      0.666920000000     0.358995000000     0.439110000000     0          
O        O      0.650125000000     0.414730000000     0.435940000000     0          
O        O      0.689320000000     0.394315000000     0.503420000000     0          
O        O      0.534390000000     0.371895000000     0.415960000000     0          
O        O      0.599140000000     0.351765000000     0.420000000000     0          
O        O      0.583070000000     0.403285000000     0.454440000000     0          
O        O      0.646440000000     0.309380000000     0.401550000000     0          
O        O      0.627095000000     0.320820000000     0.484640000000     0          
O        O      0.647145000000     0.291845000000     0.556740000000     0          
O        O      0.686720000000     0.287780000000     0.338220000000     0          
O        O      0.714990000000     0.300835000000     0.418440000000     0          
O        O      0.673645000000     0.255685000000     0.410820000000     0          
O        O      0.715275000000     0.282255000000     0.545720000000     0          
O        O      0.715485000000     0.338255000000     0.308870000000     0          
O        O      0.784815000000     0.101520000000     0.918090000000     0          
O        O      0.833080000000     0.141005000000     0.939110000000     0          
O        O      0.849875000000     0.085270000000     0.935940000000     0          
O        O      0.810680000000     0.105685000000     0.003420000000     0          
O        O      0.965610000000     0.128105000000     0.915960000000     0          
O        O      0.900860000000     0.148235000000     0.920000000000     0          
O        O      0.916930000000     0.096715000000     0.954440000000     0          
O        O      0.853560000000     0.190620000000     0.901550000000     0          
O        O      0.872905000000     0.179180000000     0.984640000000     0          
O        O      0.852855000000     0.208155000000     0.056740000000     0          
O        O      0.813280000000     0.212220000000     0.838220000000     0          
O        O      0.785010000000     0.199165000000     0.918440000000     0          
O        O      0.826355000000     0.244315000000     0.910820000000     0          
O        O      0.784725000000     0.217745000000     0.045720000000     0          
O        O      0.784515000000     0.161745000000     0.808870000000     0          
O        O      0.534815000000     0.648480000000     0.418090000000     0          
O        O      0.583080000000     0.608995000000     0.439110000000     0          
O        O      0.599875000000     0.664730000000     0.435940000000     0          
O        O      0.560680000000     0.644315000000     0.503420000000     0          
O        O      0.715610000000     0.621895000000     0.415960000000     0          
O        O      0.650860000000     0.601765000000     0.420000000000     0          
O        O      0.666930000000     0.653285000000     0.454440000000     0          
O        O      0.603560000000     0.559380000000     0.401550000000     0          
O        O      0.622905000000     0.570820000000     0.484640000000     0          
O        O      0.602855000000     0.541845000000     0.556740000000     0          
O        O      0.563280000000     0.537780000000     0.338220000000     0          
O        O      0.535010000000     0.550835000000     0.418440000000     0          
O        O      0.576355000000     0.505685000000     0.410820000000     0          
O        O      0.534725000000     0.532255000000     0.545720000000     0          
O        O      0.581275000000     0.500000000000     0.500000000000     0          
O        O      0.500000000000     0.539145000000     0.301150000000     0          
O        O      0.555915000000     0.548530000000     0.250000000000     0          
O        O      0.534515000000     0.588255000000     0.308870000000     0          
O        O      0.500000000000     0.633300000000     0.341340000000     0          
O        O      0.500000000000     0.599905000000     0.414920000000     0          
O        O      0.500000000000     0.577305000000     0.580270000000     0          
O        O      0.500000000000     0.568535000000     0.491490000000     0          
O        O      0.500000000000     0.621355000000     0.250000000000     0          
O        O      0.500000000000     0.608595000000     0.655950000000     0          
O        O      0.965185000000     0.851520000000     0.918090000000     0          
O        O      0.916920000000     0.891005000000     0.939110000000     0          
O        O      0.900125000000     0.835270000000     0.935940000000     0          
O        O      0.939320000000     0.855685000000     0.003420000000     0          
O        O      0.784390000000     0.878105000000     0.915960000000     0          
O        O      0.849140000000     0.898235000000     0.920000000000     0          
O        O      0.833070000000     0.846715000000     0.954440000000     0          
O        O      0.896440000000     0.940620000000     0.901550000000     0          
O        O      0.877095000000     0.929180000000     0.984640000000     0          
O        O      0.897145000000     0.958155000000     0.056740000000     0          
O        O      0.936720000000     0.962220000000     0.838220000000     0          
O        O      0.964990000000     0.949165000000     0.918440000000     0          
O        O      0.923645000000     0.994315000000     0.910820000000     0          
O        O      0.965275000000     0.967745000000     0.045720000000     0          
O        O      0.918725000000     0.500000000000     0.000000000000     0          
O        O      0.500000000000     0.960855000000     0.801150000000     0          
O        O      0.944085000000     0.951470000000     0.750000000000     0          
O        O      0.965485000000     0.911745000000     0.808870000000     0          
O        O      0.500000000000     0.866700000000     0.841340000000     0          
O        O      0.500000000000     0.900095000000     0.914920000000     0          
O        O      0.500000000000     0.922695000000     0.080270000000     0          
O        O      0.500000000000     0.931465000000     0.991490000000     0          
O        O      0.500000000000     0.878645000000     0.750000000000     0          
O        O      0.500000000000     0.891405000000     0.155950000000     0          
O        O      0.534815000000     0.851520000000     0.581910000000     0          
O        O      0.583080000000     0.891005000000     0.560890000000     0          
O        O      0.599875000000     0.835270000000     0.564060000000     0          
O        O      0.560680000000     0.855685000000     0.496580000000     0          
O        O      0.715610000000     0.878105000000     0.584040000000     0          
O        O      0.650860000000     0.898235000000     0.580000000000     0          
O        O      0.666930000000     0.846715000000     0.545560000000     0          
O        O      0.603560000000     0.940620000000     0.598450000000     0          
O        O      0.622905000000     0.929180000000     0.515360000000     0          
O        O      0.602855000000     0.958155000000     0.443260000000     0          
O        O      0.563280000000     0.962220000000     0.661780000000     0          
O        O      0.535010000000     0.949165000000     0.581560000000     0          
O        O      0.576355000000     0.994315000000     0.589180000000     0          
O        O      0.534725000000     0.967745000000     0.454280000000     0          
O        O      0.500000000000     0.960855000000     0.698850000000     0          
O        O      0.555915000000     0.951470000000     0.750000000000     0          
O        O      0.534515000000     0.911745000000     0.691130000000     0          
O        O      0.500000000000     0.866700000000     0.658660000000     0          
O        O      0.500000000000     0.900095000000     0.585080000000     0          
O        O      0.500000000000     0.922695000000     0.419730000000     0          
O        O      0.500000000000     0.931465000000     0.508510000000     0          
O        O      0.500000000000     0.891405000000     0.344050000000     0          
O        O      0.965185000000     0.648480000000     0.081910000000     0          
O        O      0.916920000000     0.608995000000     0.060890000000     0          
O        O      0.900125000000     0.664730000000     0.064060000000     0          
O        O      0.939320000000     0.644315000000     0.996580000000     0          
O        O      0.784390000000     0.621895000000     0.084040000000     0          
O        O      0.849140000000     0.601765000000     0.080000000000     0          
O        O      0.833070000000     0.653285000000     0.045560000000     0          
O        O      0.896440000000     0.559380000000     0.098450000000     0          
O        O      0.877095000000     0.570820000000     0.015360000000     0          
O        O      0.897145000000     0.541845000000     0.943260000000     0          
O        O      0.936720000000     0.537780000000     0.161780000000     0          
O        O      0.964990000000     0.550835000000     0.081560000000     0          
O        O      0.923645000000     0.505685000000     0.089180000000     0          
O        O      0.965275000000     0.532255000000     0.954280000000     0          
O        O      0.500000000000     0.539145000000     0.198850000000     0          
O        O      0.944085000000     0.548530000000     0.250000000000     0          
O        O      0.965485000000     0.588255000000     0.191130000000     0          
O        O      0.500000000000     0.633300000000     0.158660000000     0          
O        O      0.500000000000     0.599905000000     0.085080000000     0          
O        O      0.500000000000     0.577305000000     0.919730000000     0          
O        O      0.500000000000     0.568535000000     0.008510000000     0          
O        O      0.500000000000     0.608595000000     0.844050000000     0          
O        O      0.965185000000     0.851520000000     0.581910000000     0          
O        O      0.916920000000     0.891005000000     0.560890000000     0          
O        O      0.900125000000     0.835270000000     0.564060000000     0          
O        O      0.939320000000     0.855685000000     0.496580000000     0          
O        O      0.784390000000     0.878105000000     0.584040000000     0          
O        O      0.849140000000     0.898235000000     0.580000000000     0          
O        O      0.833070000000     0.846715000000     0.545560000000     0          
O        O      0.896440000000     0.940620000000     0.598450000000     0          
O        O      0.877095000000     0.929180000000     0.515360000000     0          
O        O      0.897145000000     0.958155000000     0.443260000000     0          
O        O      0.936720000000     0.962220000000     0.661780000000     0          
O        O      0.964990000000     0.949165000000     0.581560000000     0          
O        O      0.923645000000     0.994315000000     0.589180000000     0          
O        O      0.965275000000     0.967745000000     0.454280000000     0          
O        O      0.918725000000     0.500000000000     0.500000000000     0          
O        O      0.965485000000     0.911745000000     0.691130000000     0          
O        O      0.534815000000     0.648480000000     0.081910000000     0          
O        O      0.583080000000     0.608995000000     0.060890000000     0          
O        O      0.599875000000     0.664730000000     0.064060000000     0          
O        O      0.560680000000     0.644315000000     0.996580000000     0          
O        O      0.715610000000     0.621895000000     0.084040000000     0          
O        O      0.650860000000     0.601765000000     0.080000000000     0          
O        O      0.666930000000     0.653285000000     0.045560000000     0          
O        O      0.603560000000     0.559380000000     0.098450000000     0          
O        O      0.622905000000     0.570820000000     0.015360000000     0          
O        O      0.602855000000     0.541845000000     0.943260000000     0          
O        O      0.563280000000     0.537780000000     0.161780000000     0          
O        O      0.535010000000     0.550835000000     0.081560000000     0          
O        O      0.576355000000     0.505685000000     0.089180000000     0          
O        O      0.534725000000     0.532255000000     0.954280000000     0          
O        O      0.581275000000     0.500000000000     0.000000000000     0          
O        O      0.534515000000     0.588255000000     0.191130000000     0          
O        O      0.965185000000     0.648480000000     0.418090000000     0          
O        O      0.916920000000     0.608995000000     0.439110000000     0          
O        O      0.900125000000     0.664730000000     0.435940000000     0          
O        O      0.939320000000     0.644315000000     0.503420000000     0          
O        O      0.784390000000     0.621895000000     0.415960000000     0          
O        O      0.849140000000     0.601765000000     0.420000000000     0          
O        O      0.833070000000     0.653285000000     0.454440000000     0          
O        O      0.896440000000     0.559380000000     0.401550000000     0          
O        O      0.877095000000     0.570820000000     0.484640000000     0          
O        O      0.897145000000     0.541845000000     0.556740000000     0          
O        O      0.936720000000     0.537780000000     0.338220000000     0          
O        O      0.964990000000     0.550835000000     0.418440000000     0          
O        O      0.923645000000     0.505685000000     0.410820000000     0          
O        O      0.965275000000     0.532255000000     0.545720000000     0          
O        O      0.965485000000     0.588255000000     0.308870000000     0          
O        O      0.534815000000     0.851520000000     0.918090000000     0          
O        O      0.583080000000     0.891005000000     0.939110000000     0          
O        O      0.599875000000     0.835270000000     0.935940000000     0          
O        O      0.560680000000     0.855685000000     0.003420000000     0          
O        O      0.715610000000     0.878105000000     0.915960000000     0          
O        O      0.650860000000     0.898235000000     0.920000000000     0          
O        O      0.666930000000     0.846715000000     0.954440000000     0          
O        O      0.603560000000     0.940620000000     0.901550000000     0          
O        O      0.622905000000     0.929180000000     0.984640000000     0          
O        O      0.602855000000     0.958155000000     0.056740000000     0          
O        O      0.563280000000     0.962220000000     0.838220000000     0          
O        O      0.535010000000     0.949165000000     0.918440000000     0          
O        O      0.576355000000     0.994315000000     0.910820000000     0          
O        O      0.534725000000     0.967745000000     0.045720000000     0          
O        O      0.534515000000     0.911745000000     0.808870000000     0          
O        O      0.784815000000     0.898480000000     0.418090000000     0          
O        O      0.833080000000     0.858995000000     0.439110000000     0          
O        O      0.849875000000     0.914730000000     0.435940000000     0          
O        O      0.810680000000     0.894315000000     0.503420000000     0          
O        O      0.965610000000     0.871895000000     0.415960000000     0          
O        O      0.900860000000     0.851765000000     0.420000000000     0          
O        O      0.916930000000     0.903285000000     0.454440000000     0          
O        O      0.853560000000     0.809380000000     0.401550000000     0          
O        O      0.872905000000     0.820820000000     0.484640000000     0          
O        O      0.852855000000     0.791845000000     0.556740000000     0          
O        O      0.813280000000     0.787780000000     0.338220000000     0          
O        O      0.785010000000     0.800835000000     0.418440000000     0          
O        O      0.826355000000     0.755685000000     0.410820000000     0          
O        O      0.784725000000     0.782255000000     0.545720000000     0          
O        O      0.831275000000     0.750000000000     0.500000000000     0          
O        O      0.750000000000     0.789145000000     0.301150000000     0          
O        O      0.805915000000     0.798530000000     0.250000000000     0          
O        O      0.784515000000     0.838255000000     0.308870000000     0          
O        O      0.750000000000     0.883300000000     0.341340000000     0          
O        O      0.750000000000     0.849905000000     0.414920000000     0          
O        O      0.750000000000     0.827305000000     0.580270000000     0          
O        O      0.750000000000     0.818535000000     0.491490000000     0          
O        O      0.750000000000     0.871355000000     0.250000000000     0          
O        O      0.750000000000     0.858595000000     0.655950000000     0          
O        O      0.715185000000     0.601520000000     0.918090000000     0          
O        O      0.666920000000     0.641005000000     0.939110000000     0          
O        O      0.650125000000     0.585270000000     0.935940000000     0          
O        O      0.689320000000     0.605685000000     0.003420000000     0          
O        O      0.534390000000     0.628105000000     0.915960000000     0          
O        O      0.599140000000     0.648235000000     0.920000000000     0          
O        O      0.583070000000     0.596715000000     0.954440000000     0          
O        O      0.646440000000     0.690620000000     0.901550000000     0          
O        O      0.627095000000     0.679180000000     0.984640000000     0          
O        O      0.647145000000     0.708155000000     0.056740000000     0          
O        O      0.686720000000     0.712220000000     0.838220000000     0          
O        O      0.714990000000     0.699165000000     0.918440000000     0          
O        O      0.673645000000     0.744315000000     0.910820000000     0          
O        O      0.715275000000     0.717745000000     0.045720000000     0          
O        O      0.668725000000     0.750000000000     0.000000000000     0          
O        O      0.750000000000     0.710855000000     0.801150000000     0          
O        O      0.694085000000     0.701470000000     0.750000000000     0          
O        O      0.715485000000     0.661745000000     0.808870000000     0          
O        O      0.750000000000     0.616700000000     0.841340000000     0          
O        O      0.750000000000     0.650095000000     0.914920000000     0          
O        O      0.750000000000     0.672695000000     0.080270000000     0          
O        O      0.750000000000     0.681465000000     0.991490000000     0          
O        O      0.750000000000     0.628645000000     0.750000000000     0          
O        O      0.750000000000     0.641405000000     0.155950000000     0          
O        O      0.784815000000     0.601520000000     0.581910000000     0          
O        O      0.833080000000     0.641005000000     0.560890000000     0          
O        O      0.849875000000     0.585270000000     0.564060000000     0          
O        O      0.810680000000     0.605685000000     0.496580000000     0          
O        O      0.965610000000     0.628105000000     0.584040000000     0          
O        O      0.900860000000     0.648235000000     0.580000000000     0          
O        O      0.916930000000     0.596715000000     0.545560000000     0          
O        O      0.853560000000     0.690620000000     0.598450000000     0          
O        O      0.872905000000     0.679180000000     0.515360000000     0          
O        O      0.852855000000     0.708155000000     0.443260000000     0          
O        O      0.813280000000     0.712220000000     0.661780000000     0          
O        O      0.785010000000     0.699165000000     0.581560000000     0          
O        O      0.826355000000     0.744315000000     0.589180000000     0          
O        O      0.784725000000     0.717745000000     0.454280000000     0          
O        O      0.750000000000     0.710855000000     0.698850000000     0          
O        O      0.805915000000     0.701470000000     0.750000000000     0          
O        O      0.784515000000     0.661745000000     0.691130000000     0          
O        O      0.750000000000     0.616700000000     0.658660000000     0          
O        O      0.750000000000     0.650095000000     0.585080000000     0          
O        O      0.750000000000     0.672695000000     0.419730000000     0          
O        O      0.750000000000     0.681465000000     0.508510000000     0          
O        O      0.750000000000     0.641405000000     0.344050000000     0          
O        O      0.715185000000     0.898480000000     0.081910000000     0          
O        O      0.666920000000     0.858995000000     0.060890000000     0          
O        O      0.650125000000     0.914730000000     0.064060000000     0          
O        O      0.689320000000     0.894315000000     0.996580000000     0          
O        O      0.534390000000     0.871895000000     0.084040000000     0          
O        O      0.599140000000     0.851765000000     0.080000000000     0          
O        O      0.583070000000     0.903285000000     0.045560000000     0          
O        O      0.646440000000     0.809380000000     0.098450000000     0          
O        O      0.627095000000     0.820820000000     0.015360000000     0          
O        O      0.647145000000     0.791845000000     0.943260000000     0          
O        O      0.686720000000     0.787780000000     0.161780000000     0          
O        O      0.714990000000     0.800835000000     0.081560000000     0          
O        O      0.673645000000     0.755685000000     0.089180000000     0          
O        O      0.715275000000     0.782255000000     0.954280000000     0          
O        O      0.750000000000     0.789145000000     0.198850000000     0          
O        O      0.694085000000     0.798530000000     0.250000000000     0          
O        O      0.715485000000     0.838255000000     0.191130000000     0          
O        O      0.750000000000     0.883300000000     0.158660000000     0          
O        O      0.750000000000     0.849905000000     0.085080000000     0          
O        O      0.750000000000     0.827305000000     0.919730000000     0          
O        O      0.750000000000     0.818535000000     0.008510000000     0          
O        O      0.750000000000     0.858595000000     0.844050000000     0          
O        O      0.715185000000     0.601520000000     0.581910000000     0          
O        O      0.666920000000     0.641005000000     0.560890000000     0          
O        O      0.650125000000     0.585270000000     0.564060000000     0          
O        O      0.689320000000     0.605685000000     0.496580000000     0          
O        O      0.534390000000     0.628105000000     0.584040000000     0          
O        O      0.599140000000     0.648235000000     0.580000000000     0          
O        O      0.583070000000     0.596715000000     0.545560000000     0          
O        O      0.646440000000     0.690620000000     0.598450000000     0          
O        O      0.627095000000     0.679180000000     0.515360000000     0          
O        O      0.647145000000     0.708155000000     0.443260000000     0          
O        O      0.686720000000     0.712220000000     0.661780000000     0          
O        O      0.714990000000     0.699165000000     0.581560000000     0          
O        O      0.673645000000     0.744315000000     0.589180000000     0          
O        O      0.715275000000     0.717745000000     0.454280000000     0          
O        O      0.668725000000     0.750000000000     0.500000000000     0          
O        O      0.715485000000     0.661745000000     0.691130000000     0          
O        O      0.784815000000     0.898480000000     0.081910000000     0          
O        O      0.833080000000     0.858995000000     0.060890000000     0          
O        O      0.849875000000     0.914730000000     0.064060000000     0          
O        O      0.810680000000     0.894315000000     0.996580000000     0          
O        O      0.965610000000     0.871895000000     0.084040000000     0          
O        O      0.900860000000     0.851765000000     0.080000000000     0          
O        O      0.916930000000     0.903285000000     0.045560000000     0          
O        O      0.853560000000     0.809380000000     0.098450000000     0          
O        O      0.872905000000     0.820820000000     0.015360000000     0          
O        O      0.852855000000     0.791845000000     0.943260000000     0          
O        O      0.813280000000     0.787780000000     0.161780000000     0          
O        O      0.785010000000     0.800835000000     0.081560000000     0          
O        O      0.826355000000     0.755685000000     0.089180000000     0          
O        O      0.784725000000     0.782255000000     0.954280000000     0          
O        O      0.831275000000     0.750000000000     0.000000000000     0          
O        O      0.784515000000     0.838255000000     0.191130000000     0          
O        O      0.715185000000     0.898480000000     0.418090000000     0          
O        O      0.666920000000     0.858995000000     0.439110000000     0          
O        O      0.650125000000     0.914730000000     0.435940000000     0          
O        O      0.689320000000     0.894315000000     0.503420000000     0          
O        O      0.534390000000     0.871895000000     0.415960000000     0          
O        O      0.599140000000     0.851765000000     0.420000000000     0          
O        O      0.583070000000     0.903285000000     0.454440000000     0          
O        O      0.646440000000     0.809380000000     0.401550000000     0          
O        O      0.627095000000     0.820820000000     0.484640000000     0          
O        O      0.647145000000     0.791845000000     0.556740000000     0          
O        O      0.686720000000     0.787780000000     0.338220000000     0          
O        O      0.714990000000     0.800835000000     0.418440000000     0          
O        O      0.673645000000     0.755685000000     0.410820000000     0          
O        O      0.715275000000     0.782255000000     0.545720000000     0          
O        O      0.715485000000     0.838255000000     0.308870000000     0          
O        O      0.784815000000     0.601520000000     0.918090000000     0          
O        O      0.833080000000     0.641005000000     0.939110000000     0          
O        O      0.849875000000     0.585270000000     0.935940000000     0          
O        O      0.810680000000     0.605685000000     0.003420000000     0          
O        O      0.965610000000     0.628105000000     0.915960000000     0          
O        O      0.900860000000     0.648235000000     0.920000000000     0          
O        O      0.916930000000     0.596715000000     0.954440000000     0          
O        O      0.853560000000     0.690620000000     0.901550000000     0          
O        O      0.872905000000     0.679180000000     0.984640000000     0          
O        O      0.852855000000     0.708155000000     0.056740000000     0          
O        O      0.813280000000     0.712220000000     0.838220000000     0          
O        O      0.785010000000     0.699165000000     0.918440000000     0          
O        O      0.826355000000     0.744315000000     0.910820000000     0          
O        O      0.784725000000     0.717745000000     0.045720000000     0          
O        O      0.784515000000     0.661745000000     0.808870000000     0          


