data_zeolite

_audit_creation_method RASPA-1.0
_audit_creation_date 2021-6-7
_audit_author_name ''

_cell_length_a    27.2414
_cell_length_b    30.1864
_cell_length_c    27.2438
_cell_angle_alpha 90
_cell_angle_beta  90
_cell_angle_gamma 90
_cell_volume      22403.1

_symmetry_cell_setting          orthorhombic
_symmetry_space_group_name_Hall 'P 1'
_symmetry_space_group_name_H-M  'P 1'
_symmetry_Int_Tables_number     1

_symmetry_equiv_pos_as_xyz 'x,y,z'

loop_
_atom_site_label
_atom_site_type_symbol
_atom_site_fract_x
_atom_site_fract_y
_atom_site_fract_z
_atom_site_charge
T        Si     0.318800000000     0.074007500000     0.112280000000     0          
T        Si     0.489365000000     0.073900000000     0.305565000000     0          
T        Si     0.317215000000     0.000000000000     0.359990000000     0          
T        Si     0.262795000000     0.000000000000     0.057560000000     0          
O        O      0.375000000000     0.059247500000     0.120480000000     0          
O        O      0.288890000000     0.068297500000     0.162820000000     0          
O        O      0.294410000000     0.043535000000     0.070385000000     0          
O        O      0.317070000000     0.125000000000     0.095095000000     0          
O        O      0.000000000000     0.058485000000     0.250000000000     0          
O        O      0.446700000000     0.043550000000     0.328835000000     0          
O        O      0.472470000000     0.125000000000     0.306030000000     0          
O        O      0.287115000000     0.000000000000     0.410840000000     0          
O        O      0.375000000000     0.000000000000     0.372140000000     0          
O        O      0.250000000000     0.000000000000     0.000000000000     0          
T        Si     0.431200000000     0.175992500000     0.112280000000     0          
T        Si     0.260635000000     0.176100000000     0.305565000000     0          
T        Si     0.432785000000     0.000000000000     0.359990000000     0          
T        Si     0.487205000000     0.000000000000     0.057560000000     0          
O        O      0.375000000000     0.190752500000     0.120480000000     0          
O        O      0.461110000000     0.181702500000     0.162820000000     0          
O        O      0.455590000000     0.206465000000     0.070385000000     0          
O        O      0.432930000000     0.125000000000     0.095095000000     0          
O        O      0.250000000000     0.191515000000     0.250000000000     0          
O        O      0.303300000000     0.206450000000     0.328835000000     0          
O        O      0.277530000000     0.125000000000     0.306030000000     0          
O        O      0.462885000000     0.000000000000     0.410840000000     0          
O        O      0.000000000000     0.000000000000     0.000000000000     0          
T        Si     0.068800000000     0.175992500000     0.387720000000     0          
T        Si     0.239365000000     0.176100000000     0.194435000000     0          
T        Si     0.067215000000     0.000000000000     0.140010000000     0          
T        Si     0.012795000000     0.000000000000     0.442440000000     0          
O        O      0.125000000000     0.190752500000     0.379520000000     0          
O        O      0.038890000000     0.181702500000     0.337180000000     0          
O        O      0.044410000000     0.206465000000     0.429615000000     0          
O        O      0.067070000000     0.125000000000     0.404905000000     0          
O        O      0.196700000000     0.206450000000     0.171165000000     0          
O        O      0.222470000000     0.125000000000     0.193970000000     0          
O        O      0.037115000000     0.000000000000     0.089160000000     0          
O        O      0.125000000000     0.000000000000     0.127860000000     0          
T        Si     0.181200000000     0.074007500000     0.387720000000     0          
T        Si     0.010635000000     0.073900000000     0.194435000000     0          
T        Si     0.182785000000     0.000000000000     0.140010000000     0          
T        Si     0.237205000000     0.000000000000     0.442440000000     0          
O        O      0.125000000000     0.059247500000     0.379520000000     0          
O        O      0.211110000000     0.068297500000     0.337180000000     0          
O        O      0.205590000000     0.043535000000     0.429615000000     0          
O        O      0.182930000000     0.125000000000     0.404905000000     0          
O        O      0.053300000000     0.043550000000     0.171165000000     0          
O        O      0.027530000000     0.125000000000     0.193970000000     0          
O        O      0.212885000000     0.000000000000     0.089160000000     0          
T        Si     0.181200000000     0.175992500000     0.387720000000     0          
T        Si     0.010635000000     0.176100000000     0.194435000000     0          
O        O      0.211110000000     0.181702500000     0.337180000000     0          
O        O      0.205590000000     0.206465000000     0.429615000000     0          
O        O      0.000000000000     0.191515000000     0.250000000000     0          
O        O      0.053300000000     0.206450000000     0.171165000000     0          
T        Si     0.068800000000     0.074007500000     0.387720000000     0          
T        Si     0.239365000000     0.073900000000     0.194435000000     0          
O        O      0.038890000000     0.068297500000     0.337180000000     0          
O        O      0.044410000000     0.043535000000     0.429615000000     0          
O        O      0.250000000000     0.058485000000     0.250000000000     0          
O        O      0.196700000000     0.043550000000     0.171165000000     0          
T        Si     0.431200000000     0.074007500000     0.112280000000     0          
T        Si     0.260635000000     0.073900000000     0.305565000000     0          
O        O      0.461110000000     0.068297500000     0.162820000000     0          
O        O      0.455590000000     0.043535000000     0.070385000000     0          
O        O      0.303300000000     0.043550000000     0.328835000000     0          
T        Si     0.318800000000     0.175992500000     0.112280000000     0          
T        Si     0.489365000000     0.176100000000     0.305565000000     0          
O        O      0.288890000000     0.181702500000     0.162820000000     0          
O        O      0.294410000000     0.206465000000     0.070385000000     0          
O        O      0.446700000000     0.206450000000     0.328835000000     0          
T        Si     0.318800000000     0.074007500000     0.612280000000     0          
T        Si     0.489365000000     0.073900000000     0.805565000000     0          
T        Si     0.317215000000     0.000000000000     0.859990000000     0          
T        Si     0.262795000000     0.000000000000     0.557560000000     0          
O        O      0.375000000000     0.059247500000     0.620480000000     0          
O        O      0.288890000000     0.068297500000     0.662820000000     0          
O        O      0.294410000000     0.043535000000     0.570385000000     0          
O        O      0.317070000000     0.125000000000     0.595095000000     0          
O        O      0.000000000000     0.058485000000     0.750000000000     0          
O        O      0.446700000000     0.043550000000     0.828835000000     0          
O        O      0.472470000000     0.125000000000     0.806030000000     0          
O        O      0.287115000000     0.000000000000     0.910840000000     0          
O        O      0.375000000000     0.000000000000     0.872140000000     0          
O        O      0.250000000000     0.000000000000     0.500000000000     0          
T        Si     0.431200000000     0.175992500000     0.612280000000     0          
T        Si     0.260635000000     0.176100000000     0.805565000000     0          
T        Si     0.432785000000     0.000000000000     0.859990000000     0          
T        Si     0.487205000000     0.000000000000     0.557560000000     0          
O        O      0.375000000000     0.190752500000     0.620480000000     0          
O        O      0.461110000000     0.181702500000     0.662820000000     0          
O        O      0.455590000000     0.206465000000     0.570385000000     0          
O        O      0.432930000000     0.125000000000     0.595095000000     0          
O        O      0.250000000000     0.191515000000     0.750000000000     0          
O        O      0.303300000000     0.206450000000     0.828835000000     0          
O        O      0.277530000000     0.125000000000     0.806030000000     0          
O        O      0.462885000000     0.000000000000     0.910840000000     0          
O        O      0.000000000000     0.000000000000     0.500000000000     0          
T        Si     0.068800000000     0.175992500000     0.887720000000     0          
T        Si     0.239365000000     0.176100000000     0.694435000000     0          
T        Si     0.067215000000     0.000000000000     0.640010000000     0          
T        Si     0.012795000000     0.000000000000     0.942440000000     0          
O        O      0.125000000000     0.190752500000     0.879520000000     0          
O        O      0.038890000000     0.181702500000     0.837180000000     0          
O        O      0.044410000000     0.206465000000     0.929615000000     0          
O        O      0.067070000000     0.125000000000     0.904905000000     0          
O        O      0.196700000000     0.206450000000     0.671165000000     0          
O        O      0.222470000000     0.125000000000     0.693970000000     0          
O        O      0.037115000000     0.000000000000     0.589160000000     0          
O        O      0.125000000000     0.000000000000     0.627860000000     0          
T        Si     0.181200000000     0.074007500000     0.887720000000     0          
T        Si     0.010635000000     0.073900000000     0.694435000000     0          
T        Si     0.182785000000     0.000000000000     0.640010000000     0          
T        Si     0.237205000000     0.000000000000     0.942440000000     0          
O        O      0.125000000000     0.059247500000     0.879520000000     0          
O        O      0.211110000000     0.068297500000     0.837180000000     0          
O        O      0.205590000000     0.043535000000     0.929615000000     0          
O        O      0.182930000000     0.125000000000     0.904905000000     0          
O        O      0.053300000000     0.043550000000     0.671165000000     0          
O        O      0.027530000000     0.125000000000     0.693970000000     0          
O        O      0.212885000000     0.000000000000     0.589160000000     0          
T        Si     0.181200000000     0.175992500000     0.887720000000     0          
T        Si     0.010635000000     0.176100000000     0.694435000000     0          
O        O      0.211110000000     0.181702500000     0.837180000000     0          
O        O      0.205590000000     0.206465000000     0.929615000000     0          
O        O      0.000000000000     0.191515000000     0.750000000000     0          
O        O      0.053300000000     0.206450000000     0.671165000000     0          
T        Si     0.068800000000     0.074007500000     0.887720000000     0          
T        Si     0.239365000000     0.073900000000     0.694435000000     0          
O        O      0.038890000000     0.068297500000     0.837180000000     0          
O        O      0.044410000000     0.043535000000     0.929615000000     0          
O        O      0.250000000000     0.058485000000     0.750000000000     0          
O        O      0.196700000000     0.043550000000     0.671165000000     0          
T        Si     0.431200000000     0.074007500000     0.612280000000     0          
T        Si     0.260635000000     0.073900000000     0.805565000000     0          
O        O      0.461110000000     0.068297500000     0.662820000000     0          
O        O      0.455590000000     0.043535000000     0.570385000000     0          
O        O      0.303300000000     0.043550000000     0.828835000000     0          
T        Si     0.318800000000     0.175992500000     0.612280000000     0          
T        Si     0.489365000000     0.176100000000     0.805565000000     0          
O        O      0.288890000000     0.181702500000     0.662820000000     0          
O        O      0.294410000000     0.206465000000     0.570385000000     0          
O        O      0.446700000000     0.206450000000     0.828835000000     0          
T        Si     0.318800000000     0.324007500000     0.112280000000     0          
T        Si     0.489365000000     0.323900000000     0.305565000000     0          
T        Si     0.317215000000     0.250000000000     0.359990000000     0          
T        Si     0.262795000000     0.250000000000     0.057560000000     0          
O        O      0.375000000000     0.309247500000     0.120480000000     0          
O        O      0.288890000000     0.318297500000     0.162820000000     0          
O        O      0.294410000000     0.293535000000     0.070385000000     0          
O        O      0.317070000000     0.375000000000     0.095095000000     0          
O        O      0.000000000000     0.308485000000     0.250000000000     0          
O        O      0.446700000000     0.293550000000     0.328835000000     0          
O        O      0.472470000000     0.375000000000     0.306030000000     0          
O        O      0.287115000000     0.250000000000     0.410840000000     0          
O        O      0.375000000000     0.250000000000     0.372140000000     0          
O        O      0.250000000000     0.250000000000     0.000000000000     0          
T        Si     0.431200000000     0.425992500000     0.112280000000     0          
T        Si     0.260635000000     0.426100000000     0.305565000000     0          
T        Si     0.432785000000     0.250000000000     0.359990000000     0          
T        Si     0.487205000000     0.250000000000     0.057560000000     0          
O        O      0.375000000000     0.440752500000     0.120480000000     0          
O        O      0.461110000000     0.431702500000     0.162820000000     0          
O        O      0.455590000000     0.456465000000     0.070385000000     0          
O        O      0.432930000000     0.375000000000     0.095095000000     0          
O        O      0.250000000000     0.441515000000     0.250000000000     0          
O        O      0.303300000000     0.456450000000     0.328835000000     0          
O        O      0.277530000000     0.375000000000     0.306030000000     0          
O        O      0.462885000000     0.250000000000     0.410840000000     0          
O        O      0.000000000000     0.250000000000     0.000000000000     0          
T        Si     0.068800000000     0.425992500000     0.387720000000     0          
T        Si     0.239365000000     0.426100000000     0.194435000000     0          
T        Si     0.067215000000     0.250000000000     0.140010000000     0          
T        Si     0.012795000000     0.250000000000     0.442440000000     0          
O        O      0.125000000000     0.440752500000     0.379520000000     0          
O        O      0.038890000000     0.431702500000     0.337180000000     0          
O        O      0.044410000000     0.456465000000     0.429615000000     0          
O        O      0.067070000000     0.375000000000     0.404905000000     0          
O        O      0.196700000000     0.456450000000     0.171165000000     0          
O        O      0.222470000000     0.375000000000     0.193970000000     0          
O        O      0.037115000000     0.250000000000     0.089160000000     0          
O        O      0.125000000000     0.250000000000     0.127860000000     0          
T        Si     0.181200000000     0.324007500000     0.387720000000     0          
T        Si     0.010635000000     0.323900000000     0.194435000000     0          
T        Si     0.182785000000     0.250000000000     0.140010000000     0          
T        Si     0.237205000000     0.250000000000     0.442440000000     0          
O        O      0.125000000000     0.309247500000     0.379520000000     0          
O        O      0.211110000000     0.318297500000     0.337180000000     0          
O        O      0.205590000000     0.293535000000     0.429615000000     0          
O        O      0.182930000000     0.375000000000     0.404905000000     0          
O        O      0.053300000000     0.293550000000     0.171165000000     0          
O        O      0.027530000000     0.375000000000     0.193970000000     0          
O        O      0.212885000000     0.250000000000     0.089160000000     0          
T        Si     0.181200000000     0.425992500000     0.387720000000     0          
T        Si     0.010635000000     0.426100000000     0.194435000000     0          
O        O      0.211110000000     0.431702500000     0.337180000000     0          
O        O      0.205590000000     0.456465000000     0.429615000000     0          
O        O      0.000000000000     0.441515000000     0.250000000000     0          
O        O      0.053300000000     0.456450000000     0.171165000000     0          
T        Si     0.068800000000     0.324007500000     0.387720000000     0          
T        Si     0.239365000000     0.323900000000     0.194435000000     0          
O        O      0.038890000000     0.318297500000     0.337180000000     0          
O        O      0.044410000000     0.293535000000     0.429615000000     0          
O        O      0.250000000000     0.308485000000     0.250000000000     0          
O        O      0.196700000000     0.293550000000     0.171165000000     0          
T        Si     0.431200000000     0.324007500000     0.112280000000     0          
T        Si     0.260635000000     0.323900000000     0.305565000000     0          
O        O      0.461110000000     0.318297500000     0.162820000000     0          
O        O      0.455590000000     0.293535000000     0.070385000000     0          
O        O      0.303300000000     0.293550000000     0.328835000000     0          
T        Si     0.318800000000     0.425992500000     0.112280000000     0          
T        Si     0.489365000000     0.426100000000     0.305565000000     0          
O        O      0.288890000000     0.431702500000     0.162820000000     0          
O        O      0.294410000000     0.456465000000     0.070385000000     0          
O        O      0.446700000000     0.456450000000     0.328835000000     0          
T        Si     0.318800000000     0.324007500000     0.612280000000     0          
T        Si     0.489365000000     0.323900000000     0.805565000000     0          
T        Si     0.317215000000     0.250000000000     0.859990000000     0          
T        Si     0.262795000000     0.250000000000     0.557560000000     0          
O        O      0.375000000000     0.309247500000     0.620480000000     0          
O        O      0.288890000000     0.318297500000     0.662820000000     0          
O        O      0.294410000000     0.293535000000     0.570385000000     0          
O        O      0.317070000000     0.375000000000     0.595095000000     0          
O        O      0.000000000000     0.308485000000     0.750000000000     0          
O        O      0.446700000000     0.293550000000     0.828835000000     0          
O        O      0.472470000000     0.375000000000     0.806030000000     0          
O        O      0.287115000000     0.250000000000     0.910840000000     0          
O        O      0.375000000000     0.250000000000     0.872140000000     0          
O        O      0.250000000000     0.250000000000     0.500000000000     0          
T        Si     0.431200000000     0.425992500000     0.612280000000     0          
T        Si     0.260635000000     0.426100000000     0.805565000000     0          
T        Si     0.432785000000     0.250000000000     0.859990000000     0          
T        Si     0.487205000000     0.250000000000     0.557560000000     0          
O        O      0.375000000000     0.440752500000     0.620480000000     0          
O        O      0.461110000000     0.431702500000     0.662820000000     0          
O        O      0.455590000000     0.456465000000     0.570385000000     0          
O        O      0.432930000000     0.375000000000     0.595095000000     0          
O        O      0.250000000000     0.441515000000     0.750000000000     0          
O        O      0.303300000000     0.456450000000     0.828835000000     0          
O        O      0.277530000000     0.375000000000     0.806030000000     0          
O        O      0.462885000000     0.250000000000     0.910840000000     0          
O        O      0.000000000000     0.250000000000     0.500000000000     0          
T        Si     0.068800000000     0.425992500000     0.887720000000     0          
T        Si     0.239365000000     0.426100000000     0.694435000000     0          
T        Si     0.067215000000     0.250000000000     0.640010000000     0          
T        Si     0.012795000000     0.250000000000     0.942440000000     0          
O        O      0.125000000000     0.440752500000     0.879520000000     0          
O        O      0.038890000000     0.431702500000     0.837180000000     0          
O        O      0.044410000000     0.456465000000     0.929615000000     0          
O        O      0.067070000000     0.375000000000     0.904905000000     0          
O        O      0.196700000000     0.456450000000     0.671165000000     0          
O        O      0.222470000000     0.375000000000     0.693970000000     0          
O        O      0.037115000000     0.250000000000     0.589160000000     0          
O        O      0.125000000000     0.250000000000     0.627860000000     0          
T        Si     0.181200000000     0.324007500000     0.887720000000     0          
T        Si     0.010635000000     0.323900000000     0.694435000000     0          
T        Si     0.182785000000     0.250000000000     0.640010000000     0          
T        Si     0.237205000000     0.250000000000     0.942440000000     0          
O        O      0.125000000000     0.309247500000     0.879520000000     0          
O        O      0.211110000000     0.318297500000     0.837180000000     0          
O        O      0.205590000000     0.293535000000     0.929615000000     0          
O        O      0.182930000000     0.375000000000     0.904905000000     0          
O        O      0.053300000000     0.293550000000     0.671165000000     0          
O        O      0.027530000000     0.375000000000     0.693970000000     0          
O        O      0.212885000000     0.250000000000     0.589160000000     0          
T        Si     0.181200000000     0.425992500000     0.887720000000     0          
T        Si     0.010635000000     0.426100000000     0.694435000000     0          
O        O      0.211110000000     0.431702500000     0.837180000000     0          
O        O      0.205590000000     0.456465000000     0.929615000000     0          
O        O      0.000000000000     0.441515000000     0.750000000000     0          
O        O      0.053300000000     0.456450000000     0.671165000000     0          
T        Si     0.068800000000     0.324007500000     0.887720000000     0          
T        Si     0.239365000000     0.323900000000     0.694435000000     0          
O        O      0.038890000000     0.318297500000     0.837180000000     0          
O        O      0.044410000000     0.293535000000     0.929615000000     0          
O        O      0.250000000000     0.308485000000     0.750000000000     0          
O        O      0.196700000000     0.293550000000     0.671165000000     0          
T        Si     0.431200000000     0.324007500000     0.612280000000     0          
T        Si     0.260635000000     0.323900000000     0.805565000000     0          
O        O      0.461110000000     0.318297500000     0.662820000000     0          
O        O      0.455590000000     0.293535000000     0.570385000000     0          
O        O      0.303300000000     0.293550000000     0.828835000000     0          
T        Si     0.318800000000     0.425992500000     0.612280000000     0          
T        Si     0.489365000000     0.426100000000     0.805565000000     0          
O        O      0.288890000000     0.431702500000     0.662820000000     0          
O        O      0.294410000000     0.456465000000     0.570385000000     0          
O        O      0.446700000000     0.456450000000     0.828835000000     0          
T        Si     0.318800000000     0.574007500000     0.112280000000     0          
T        Si     0.489365000000     0.573900000000     0.305565000000     0          
T        Si     0.317215000000     0.500000000000     0.359990000000     0          
T        Si     0.262795000000     0.500000000000     0.057560000000     0          
O        O      0.375000000000     0.559247500000     0.120480000000     0          
O        O      0.288890000000     0.568297500000     0.162820000000     0          
O        O      0.294410000000     0.543535000000     0.070385000000     0          
O        O      0.317070000000     0.625000000000     0.095095000000     0          
O        O      0.000000000000     0.558485000000     0.250000000000     0          
O        O      0.446700000000     0.543550000000     0.328835000000     0          
O        O      0.472470000000     0.625000000000     0.306030000000     0          
O        O      0.287115000000     0.500000000000     0.410840000000     0          
O        O      0.375000000000     0.500000000000     0.372140000000     0          
O        O      0.250000000000     0.500000000000     0.000000000000     0          
T        Si     0.431200000000     0.675992500000     0.112280000000     0          
T        Si     0.260635000000     0.676100000000     0.305565000000     0          
T        Si     0.432785000000     0.500000000000     0.359990000000     0          
T        Si     0.487205000000     0.500000000000     0.057560000000     0          
O        O      0.375000000000     0.690752500000     0.120480000000     0          
O        O      0.461110000000     0.681702500000     0.162820000000     0          
O        O      0.455590000000     0.706465000000     0.070385000000     0          
O        O      0.432930000000     0.625000000000     0.095095000000     0          
O        O      0.250000000000     0.691515000000     0.250000000000     0          
O        O      0.303300000000     0.706450000000     0.328835000000     0          
O        O      0.277530000000     0.625000000000     0.306030000000     0          
O        O      0.462885000000     0.500000000000     0.410840000000     0          
O        O      0.000000000000     0.500000000000     0.000000000000     0          
T        Si     0.068800000000     0.675992500000     0.387720000000     0          
T        Si     0.239365000000     0.676100000000     0.194435000000     0          
T        Si     0.067215000000     0.500000000000     0.140010000000     0          
T        Si     0.012795000000     0.500000000000     0.442440000000     0          
O        O      0.125000000000     0.690752500000     0.379520000000     0          
O        O      0.038890000000     0.681702500000     0.337180000000     0          
O        O      0.044410000000     0.706465000000     0.429615000000     0          
O        O      0.067070000000     0.625000000000     0.404905000000     0          
O        O      0.196700000000     0.706450000000     0.171165000000     0          
O        O      0.222470000000     0.625000000000     0.193970000000     0          
O        O      0.037115000000     0.500000000000     0.089160000000     0          
O        O      0.125000000000     0.500000000000     0.127860000000     0          
T        Si     0.181200000000     0.574007500000     0.387720000000     0          
T        Si     0.010635000000     0.573900000000     0.194435000000     0          
T        Si     0.182785000000     0.500000000000     0.140010000000     0          
T        Si     0.237205000000     0.500000000000     0.442440000000     0          
O        O      0.125000000000     0.559247500000     0.379520000000     0          
O        O      0.211110000000     0.568297500000     0.337180000000     0          
O        O      0.205590000000     0.543535000000     0.429615000000     0          
O        O      0.182930000000     0.625000000000     0.404905000000     0          
O        O      0.053300000000     0.543550000000     0.171165000000     0          
O        O      0.027530000000     0.625000000000     0.193970000000     0          
O        O      0.212885000000     0.500000000000     0.089160000000     0          
T        Si     0.181200000000     0.675992500000     0.387720000000     0          
T        Si     0.010635000000     0.676100000000     0.194435000000     0          
O        O      0.211110000000     0.681702500000     0.337180000000     0          
O        O      0.205590000000     0.706465000000     0.429615000000     0          
O        O      0.000000000000     0.691515000000     0.250000000000     0          
O        O      0.053300000000     0.706450000000     0.171165000000     0          
T        Si     0.068800000000     0.574007500000     0.387720000000     0          
T        Si     0.239365000000     0.573900000000     0.194435000000     0          
O        O      0.038890000000     0.568297500000     0.337180000000     0          
O        O      0.044410000000     0.543535000000     0.429615000000     0          
O        O      0.250000000000     0.558485000000     0.250000000000     0          
O        O      0.196700000000     0.543550000000     0.171165000000     0          
T        Si     0.431200000000     0.574007500000     0.112280000000     0          
T        Si     0.260635000000     0.573900000000     0.305565000000     0          
O        O      0.461110000000     0.568297500000     0.162820000000     0          
O        O      0.455590000000     0.543535000000     0.070385000000     0          
O        O      0.303300000000     0.543550000000     0.328835000000     0          
T        Si     0.318800000000     0.675992500000     0.112280000000     0          
T        Si     0.489365000000     0.676100000000     0.305565000000     0          
O        O      0.288890000000     0.681702500000     0.162820000000     0          
O        O      0.294410000000     0.706465000000     0.070385000000     0          
O        O      0.446700000000     0.706450000000     0.328835000000     0          
T        Si     0.318800000000     0.574007500000     0.612280000000     0          
T        Si     0.489365000000     0.573900000000     0.805565000000     0          
T        Si     0.317215000000     0.500000000000     0.859990000000     0          
T        Si     0.262795000000     0.500000000000     0.557560000000     0          
O        O      0.375000000000     0.559247500000     0.620480000000     0          
O        O      0.288890000000     0.568297500000     0.662820000000     0          
O        O      0.294410000000     0.543535000000     0.570385000000     0          
O        O      0.317070000000     0.625000000000     0.595095000000     0          
O        O      0.000000000000     0.558485000000     0.750000000000     0          
O        O      0.446700000000     0.543550000000     0.828835000000     0          
O        O      0.472470000000     0.625000000000     0.806030000000     0          
O        O      0.287115000000     0.500000000000     0.910840000000     0          
O        O      0.375000000000     0.500000000000     0.872140000000     0          
O        O      0.250000000000     0.500000000000     0.500000000000     0          
T        Si     0.431200000000     0.675992500000     0.612280000000     0          
T        Si     0.260635000000     0.676100000000     0.805565000000     0          
T        Si     0.432785000000     0.500000000000     0.859990000000     0          
T        Si     0.487205000000     0.500000000000     0.557560000000     0          
O        O      0.375000000000     0.690752500000     0.620480000000     0          
O        O      0.461110000000     0.681702500000     0.662820000000     0          
O        O      0.455590000000     0.706465000000     0.570385000000     0          
O        O      0.432930000000     0.625000000000     0.595095000000     0          
O        O      0.250000000000     0.691515000000     0.750000000000     0          
O        O      0.303300000000     0.706450000000     0.828835000000     0          
O        O      0.277530000000     0.625000000000     0.806030000000     0          
O        O      0.462885000000     0.500000000000     0.910840000000     0          
O        O      0.000000000000     0.500000000000     0.500000000000     0          
T        Si     0.068800000000     0.675992500000     0.887720000000     0          
T        Si     0.239365000000     0.676100000000     0.694435000000     0          
T        Si     0.067215000000     0.500000000000     0.640010000000     0          
T        Si     0.012795000000     0.500000000000     0.942440000000     0          
O        O      0.125000000000     0.690752500000     0.879520000000     0          
O        O      0.038890000000     0.681702500000     0.837180000000     0          
O        O      0.044410000000     0.706465000000     0.929615000000     0          
O        O      0.067070000000     0.625000000000     0.904905000000     0          
O        O      0.196700000000     0.706450000000     0.671165000000     0          
O        O      0.222470000000     0.625000000000     0.693970000000     0          
O        O      0.037115000000     0.500000000000     0.589160000000     0          
O        O      0.125000000000     0.500000000000     0.627860000000     0          
T        Si     0.181200000000     0.574007500000     0.887720000000     0          
T        Si     0.010635000000     0.573900000000     0.694435000000     0          
T        Si     0.182785000000     0.500000000000     0.640010000000     0          
T        Si     0.237205000000     0.500000000000     0.942440000000     0          
O        O      0.125000000000     0.559247500000     0.879520000000     0          
O        O      0.211110000000     0.568297500000     0.837180000000     0          
O        O      0.205590000000     0.543535000000     0.929615000000     0          
O        O      0.182930000000     0.625000000000     0.904905000000     0          
O        O      0.053300000000     0.543550000000     0.671165000000     0          
O        O      0.027530000000     0.625000000000     0.693970000000     0          
O        O      0.212885000000     0.500000000000     0.589160000000     0          
T        Si     0.181200000000     0.675992500000     0.887720000000     0          
T        Si     0.010635000000     0.676100000000     0.694435000000     0          
O        O      0.211110000000     0.681702500000     0.837180000000     0          
O        O      0.205590000000     0.706465000000     0.929615000000     0          
O        O      0.000000000000     0.691515000000     0.750000000000     0          
O        O      0.053300000000     0.706450000000     0.671165000000     0          
T        Si     0.068800000000     0.574007500000     0.887720000000     0          
T        Si     0.239365000000     0.573900000000     0.694435000000     0          
O        O      0.038890000000     0.568297500000     0.837180000000     0          
O        O      0.044410000000     0.543535000000     0.929615000000     0          
O        O      0.250000000000     0.558485000000     0.750000000000     0          
O        O      0.196700000000     0.543550000000     0.671165000000     0          
T        Si     0.431200000000     0.574007500000     0.612280000000     0          
T        Si     0.260635000000     0.573900000000     0.805565000000     0          
O        O      0.461110000000     0.568297500000     0.662820000000     0          
O        O      0.455590000000     0.543535000000     0.570385000000     0          
O        O      0.303300000000     0.543550000000     0.828835000000     0          
T        Si     0.318800000000     0.675992500000     0.612280000000     0          
T        Si     0.489365000000     0.676100000000     0.805565000000     0          
O        O      0.288890000000     0.681702500000     0.662820000000     0          
O        O      0.294410000000     0.706465000000     0.570385000000     0          
O        O      0.446700000000     0.706450000000     0.828835000000     0          
T        Si     0.318800000000     0.824007500000     0.112280000000     0          
T        Si     0.489365000000     0.823900000000     0.305565000000     0          
T        Si     0.317215000000     0.750000000000     0.359990000000     0          
T        Si     0.262795000000     0.750000000000     0.057560000000     0          
O        O      0.375000000000     0.809247500000     0.120480000000     0          
O        O      0.288890000000     0.818297500000     0.162820000000     0          
O        O      0.294410000000     0.793535000000     0.070385000000     0          
O        O      0.317070000000     0.875000000000     0.095095000000     0          
O        O      0.000000000000     0.808485000000     0.250000000000     0          
O        O      0.446700000000     0.793550000000     0.328835000000     0          
O        O      0.472470000000     0.875000000000     0.306030000000     0          
O        O      0.287115000000     0.750000000000     0.410840000000     0          
O        O      0.375000000000     0.750000000000     0.372140000000     0          
O        O      0.250000000000     0.750000000000     0.000000000000     0          
T        Si     0.431200000000     0.925992500000     0.112280000000     0          
T        Si     0.260635000000     0.926100000000     0.305565000000     0          
T        Si     0.432785000000     0.750000000000     0.359990000000     0          
T        Si     0.487205000000     0.750000000000     0.057560000000     0          
O        O      0.375000000000     0.940752500000     0.120480000000     0          
O        O      0.461110000000     0.931702500000     0.162820000000     0          
O        O      0.455590000000     0.956465000000     0.070385000000     0          
O        O      0.432930000000     0.875000000000     0.095095000000     0          
O        O      0.250000000000     0.941515000000     0.250000000000     0          
O        O      0.303300000000     0.956450000000     0.328835000000     0          
O        O      0.277530000000     0.875000000000     0.306030000000     0          
O        O      0.462885000000     0.750000000000     0.410840000000     0          
O        O      0.000000000000     0.750000000000     0.000000000000     0          
T        Si     0.068800000000     0.925992500000     0.387720000000     0          
T        Si     0.239365000000     0.926100000000     0.194435000000     0          
T        Si     0.067215000000     0.750000000000     0.140010000000     0          
T        Si     0.012795000000     0.750000000000     0.442440000000     0          
O        O      0.125000000000     0.940752500000     0.379520000000     0          
O        O      0.038890000000     0.931702500000     0.337180000000     0          
O        O      0.044410000000     0.956465000000     0.429615000000     0          
O        O      0.067070000000     0.875000000000     0.404905000000     0          
O        O      0.196700000000     0.956450000000     0.171165000000     0          
O        O      0.222470000000     0.875000000000     0.193970000000     0          
O        O      0.037115000000     0.750000000000     0.089160000000     0          
O        O      0.125000000000     0.750000000000     0.127860000000     0          
T        Si     0.181200000000     0.824007500000     0.387720000000     0          
T        Si     0.010635000000     0.823900000000     0.194435000000     0          
T        Si     0.182785000000     0.750000000000     0.140010000000     0          
T        Si     0.237205000000     0.750000000000     0.442440000000     0          
O        O      0.125000000000     0.809247500000     0.379520000000     0          
O        O      0.211110000000     0.818297500000     0.337180000000     0          
O        O      0.205590000000     0.793535000000     0.429615000000     0          
O        O      0.182930000000     0.875000000000     0.404905000000     0          
O        O      0.053300000000     0.793550000000     0.171165000000     0          
O        O      0.027530000000     0.875000000000     0.193970000000     0          
O        O      0.212885000000     0.750000000000     0.089160000000     0          
T        Si     0.181200000000     0.925992500000     0.387720000000     0          
T        Si     0.010635000000     0.926100000000     0.194435000000     0          
O        O      0.211110000000     0.931702500000     0.337180000000     0          
O        O      0.205590000000     0.956465000000     0.429615000000     0          
O        O      0.000000000000     0.941515000000     0.250000000000     0          
O        O      0.053300000000     0.956450000000     0.171165000000     0          
T        Si     0.068800000000     0.824007500000     0.387720000000     0          
T        Si     0.239365000000     0.823900000000     0.194435000000     0          
O        O      0.038890000000     0.818297500000     0.337180000000     0          
O        O      0.044410000000     0.793535000000     0.429615000000     0          
O        O      0.250000000000     0.808485000000     0.250000000000     0          
O        O      0.196700000000     0.793550000000     0.171165000000     0          
T        Si     0.431200000000     0.824007500000     0.112280000000     0          
T        Si     0.260635000000     0.823900000000     0.305565000000     0          
O        O      0.461110000000     0.818297500000     0.162820000000     0          
O        O      0.455590000000     0.793535000000     0.070385000000     0          
O        O      0.303300000000     0.793550000000     0.328835000000     0          
T        Si     0.318800000000     0.925992500000     0.112280000000     0          
T        Si     0.489365000000     0.926100000000     0.305565000000     0          
O        O      0.288890000000     0.931702500000     0.162820000000     0          
O        O      0.294410000000     0.956465000000     0.070385000000     0          
O        O      0.446700000000     0.956450000000     0.328835000000     0          
T        Si     0.318800000000     0.824007500000     0.612280000000     0          
T        Si     0.489365000000     0.823900000000     0.805565000000     0          
T        Si     0.317215000000     0.750000000000     0.859990000000     0          
T        Si     0.262795000000     0.750000000000     0.557560000000     0          
O        O      0.375000000000     0.809247500000     0.620480000000     0          
O        O      0.288890000000     0.818297500000     0.662820000000     0          
O        O      0.294410000000     0.793535000000     0.570385000000     0          
O        O      0.317070000000     0.875000000000     0.595095000000     0          
O        O      0.000000000000     0.808485000000     0.750000000000     0          
O        O      0.446700000000     0.793550000000     0.828835000000     0          
O        O      0.472470000000     0.875000000000     0.806030000000     0          
O        O      0.287115000000     0.750000000000     0.910840000000     0          
O        O      0.375000000000     0.750000000000     0.872140000000     0          
O        O      0.250000000000     0.750000000000     0.500000000000     0          
T        Si     0.431200000000     0.925992500000     0.612280000000     0          
T        Si     0.260635000000     0.926100000000     0.805565000000     0          
T        Si     0.432785000000     0.750000000000     0.859990000000     0          
T        Si     0.487205000000     0.750000000000     0.557560000000     0          
O        O      0.375000000000     0.940752500000     0.620480000000     0          
O        O      0.461110000000     0.931702500000     0.662820000000     0          
O        O      0.455590000000     0.956465000000     0.570385000000     0          
O        O      0.432930000000     0.875000000000     0.595095000000     0          
O        O      0.250000000000     0.941515000000     0.750000000000     0          
O        O      0.303300000000     0.956450000000     0.828835000000     0          
O        O      0.277530000000     0.875000000000     0.806030000000     0          
O        O      0.462885000000     0.750000000000     0.910840000000     0          
O        O      0.000000000000     0.750000000000     0.500000000000     0          
T        Si     0.068800000000     0.925992500000     0.887720000000     0          
T        Si     0.239365000000     0.926100000000     0.694435000000     0          
T        Si     0.067215000000     0.750000000000     0.640010000000     0          
T        Si     0.012795000000     0.750000000000     0.942440000000     0          
O        O      0.125000000000     0.940752500000     0.879520000000     0          
O        O      0.038890000000     0.931702500000     0.837180000000     0          
O        O      0.044410000000     0.956465000000     0.929615000000     0          
O        O      0.067070000000     0.875000000000     0.904905000000     0          
O        O      0.196700000000     0.956450000000     0.671165000000     0          
O        O      0.222470000000     0.875000000000     0.693970000000     0          
O        O      0.037115000000     0.750000000000     0.589160000000     0          
O        O      0.125000000000     0.750000000000     0.627860000000     0          
T        Si     0.181200000000     0.824007500000     0.887720000000     0          
T        Si     0.010635000000     0.823900000000     0.694435000000     0          
T        Si     0.182785000000     0.750000000000     0.640010000000     0          
T        Si     0.237205000000     0.750000000000     0.942440000000     0          
O        O      0.125000000000     0.809247500000     0.879520000000     0          
O        O      0.211110000000     0.818297500000     0.837180000000     0          
O        O      0.205590000000     0.793535000000     0.929615000000     0          
O        O      0.182930000000     0.875000000000     0.904905000000     0          
O        O      0.053300000000     0.793550000000     0.671165000000     0          
O        O      0.027530000000     0.875000000000     0.693970000000     0          
O        O      0.212885000000     0.750000000000     0.589160000000     0          
T        Si     0.181200000000     0.925992500000     0.887720000000     0          
T        Si     0.010635000000     0.926100000000     0.694435000000     0          
O        O      0.211110000000     0.931702500000     0.837180000000     0          
O        O      0.205590000000     0.956465000000     0.929615000000     0          
O        O      0.000000000000     0.941515000000     0.750000000000     0          
O        O      0.053300000000     0.956450000000     0.671165000000     0          
T        Si     0.068800000000     0.824007500000     0.887720000000     0          
T        Si     0.239365000000     0.823900000000     0.694435000000     0          
O        O      0.038890000000     0.818297500000     0.837180000000     0          
O        O      0.044410000000     0.793535000000     0.929615000000     0          
O        O      0.250000000000     0.808485000000     0.750000000000     0          
O        O      0.196700000000     0.793550000000     0.671165000000     0          
T        Si     0.431200000000     0.824007500000     0.612280000000     0          
T        Si     0.260635000000     0.823900000000     0.805565000000     0          
O        O      0.461110000000     0.818297500000     0.662820000000     0          
O        O      0.455590000000     0.793535000000     0.570385000000     0          
O        O      0.303300000000     0.793550000000     0.828835000000     0          
T        Si     0.318800000000     0.925992500000     0.612280000000     0          
T        Si     0.489365000000     0.926100000000     0.805565000000     0          
O        O      0.288890000000     0.931702500000     0.662820000000     0          
O        O      0.294410000000     0.956465000000     0.570385000000     0          
O        O      0.446700000000     0.956450000000     0.828835000000     0          
T        Si     0.818800000000     0.074007500000     0.112280000000     0          
T        Si     0.989365000000     0.073900000000     0.305565000000     0          
T        Si     0.817215000000     0.000000000000     0.359990000000     0          
T        Si     0.762795000000     0.000000000000     0.057560000000     0          
O        O      0.875000000000     0.059247500000     0.120480000000     0          
O        O      0.788890000000     0.068297500000     0.162820000000     0          
O        O      0.794410000000     0.043535000000     0.070385000000     0          
O        O      0.817070000000     0.125000000000     0.095095000000     0          
O        O      0.500000000000     0.058485000000     0.250000000000     0          
O        O      0.946700000000     0.043550000000     0.328835000000     0          
O        O      0.972470000000     0.125000000000     0.306030000000     0          
O        O      0.787115000000     0.000000000000     0.410840000000     0          
O        O      0.875000000000     0.000000000000     0.372140000000     0          
O        O      0.750000000000     0.000000000000     0.000000000000     0          
T        Si     0.931200000000     0.175992500000     0.112280000000     0          
T        Si     0.760635000000     0.176100000000     0.305565000000     0          
T        Si     0.932785000000     0.000000000000     0.359990000000     0          
T        Si     0.987205000000     0.000000000000     0.057560000000     0          
O        O      0.875000000000     0.190752500000     0.120480000000     0          
O        O      0.961110000000     0.181702500000     0.162820000000     0          
O        O      0.955590000000     0.206465000000     0.070385000000     0          
O        O      0.932930000000     0.125000000000     0.095095000000     0          
O        O      0.750000000000     0.191515000000     0.250000000000     0          
O        O      0.803300000000     0.206450000000     0.328835000000     0          
O        O      0.777530000000     0.125000000000     0.306030000000     0          
O        O      0.962885000000     0.000000000000     0.410840000000     0          
O        O      0.500000000000     0.000000000000     0.000000000000     0          
T        Si     0.568800000000     0.175992500000     0.387720000000     0          
T        Si     0.739365000000     0.176100000000     0.194435000000     0          
T        Si     0.567215000000     0.000000000000     0.140010000000     0          
T        Si     0.512795000000     0.000000000000     0.442440000000     0          
O        O      0.625000000000     0.190752500000     0.379520000000     0          
O        O      0.538890000000     0.181702500000     0.337180000000     0          
O        O      0.544410000000     0.206465000000     0.429615000000     0          
O        O      0.567070000000     0.125000000000     0.404905000000     0          
O        O      0.696700000000     0.206450000000     0.171165000000     0          
O        O      0.722470000000     0.125000000000     0.193970000000     0          
O        O      0.537115000000     0.000000000000     0.089160000000     0          
O        O      0.625000000000     0.000000000000     0.127860000000     0          
T        Si     0.681200000000     0.074007500000     0.387720000000     0          
T        Si     0.510635000000     0.073900000000     0.194435000000     0          
T        Si     0.682785000000     0.000000000000     0.140010000000     0          
T        Si     0.737205000000     0.000000000000     0.442440000000     0          
O        O      0.625000000000     0.059247500000     0.379520000000     0          
O        O      0.711110000000     0.068297500000     0.337180000000     0          
O        O      0.705590000000     0.043535000000     0.429615000000     0          
O        O      0.682930000000     0.125000000000     0.404905000000     0          
O        O      0.553300000000     0.043550000000     0.171165000000     0          
O        O      0.527530000000     0.125000000000     0.193970000000     0          
O        O      0.712885000000     0.000000000000     0.089160000000     0          
T        Si     0.681200000000     0.175992500000     0.387720000000     0          
T        Si     0.510635000000     0.176100000000     0.194435000000     0          
O        O      0.711110000000     0.181702500000     0.337180000000     0          
O        O      0.705590000000     0.206465000000     0.429615000000     0          
O        O      0.500000000000     0.191515000000     0.250000000000     0          
O        O      0.553300000000     0.206450000000     0.171165000000     0          
T        Si     0.568800000000     0.074007500000     0.387720000000     0          
T        Si     0.739365000000     0.073900000000     0.194435000000     0          
O        O      0.538890000000     0.068297500000     0.337180000000     0          
O        O      0.544410000000     0.043535000000     0.429615000000     0          
O        O      0.750000000000     0.058485000000     0.250000000000     0          
O        O      0.696700000000     0.043550000000     0.171165000000     0          
T        Si     0.931200000000     0.074007500000     0.112280000000     0          
T        Si     0.760635000000     0.073900000000     0.305565000000     0          
O        O      0.961110000000     0.068297500000     0.162820000000     0          
O        O      0.955590000000     0.043535000000     0.070385000000     0          
O        O      0.803300000000     0.043550000000     0.328835000000     0          
T        Si     0.818800000000     0.175992500000     0.112280000000     0          
T        Si     0.989365000000     0.176100000000     0.305565000000     0          
O        O      0.788890000000     0.181702500000     0.162820000000     0          
O        O      0.794410000000     0.206465000000     0.070385000000     0          
O        O      0.946700000000     0.206450000000     0.328835000000     0          
T        Si     0.818800000000     0.074007500000     0.612280000000     0          
T        Si     0.989365000000     0.073900000000     0.805565000000     0          
T        Si     0.817215000000     0.000000000000     0.859990000000     0          
T        Si     0.762795000000     0.000000000000     0.557560000000     0          
O        O      0.875000000000     0.059247500000     0.620480000000     0          
O        O      0.788890000000     0.068297500000     0.662820000000     0          
O        O      0.794410000000     0.043535000000     0.570385000000     0          
O        O      0.817070000000     0.125000000000     0.595095000000     0          
O        O      0.500000000000     0.058485000000     0.750000000000     0          
O        O      0.946700000000     0.043550000000     0.828835000000     0          
O        O      0.972470000000     0.125000000000     0.806030000000     0          
O        O      0.787115000000     0.000000000000     0.910840000000     0          
O        O      0.875000000000     0.000000000000     0.872140000000     0          
O        O      0.750000000000     0.000000000000     0.500000000000     0          
T        Si     0.931200000000     0.175992500000     0.612280000000     0          
T        Si     0.760635000000     0.176100000000     0.805565000000     0          
T        Si     0.932785000000     0.000000000000     0.859990000000     0          
T        Si     0.987205000000     0.000000000000     0.557560000000     0          
O        O      0.875000000000     0.190752500000     0.620480000000     0          
O        O      0.961110000000     0.181702500000     0.662820000000     0          
O        O      0.955590000000     0.206465000000     0.570385000000     0          
O        O      0.932930000000     0.125000000000     0.595095000000     0          
O        O      0.750000000000     0.191515000000     0.750000000000     0          
O        O      0.803300000000     0.206450000000     0.828835000000     0          
O        O      0.777530000000     0.125000000000     0.806030000000     0          
O        O      0.962885000000     0.000000000000     0.910840000000     0          
O        O      0.500000000000     0.000000000000     0.500000000000     0          
T        Si     0.568800000000     0.175992500000     0.887720000000     0          
T        Si     0.739365000000     0.176100000000     0.694435000000     0          
T        Si     0.567215000000     0.000000000000     0.640010000000     0          
T        Si     0.512795000000     0.000000000000     0.942440000000     0          
O        O      0.625000000000     0.190752500000     0.879520000000     0          
O        O      0.538890000000     0.181702500000     0.837180000000     0          
O        O      0.544410000000     0.206465000000     0.929615000000     0          
O        O      0.567070000000     0.125000000000     0.904905000000     0          
O        O      0.696700000000     0.206450000000     0.671165000000     0          
O        O      0.722470000000     0.125000000000     0.693970000000     0          
O        O      0.537115000000     0.000000000000     0.589160000000     0          
O        O      0.625000000000     0.000000000000     0.627860000000     0          
T        Si     0.681200000000     0.074007500000     0.887720000000     0          
T        Si     0.510635000000     0.073900000000     0.694435000000     0          
T        Si     0.682785000000     0.000000000000     0.640010000000     0          
T        Si     0.737205000000     0.000000000000     0.942440000000     0          
O        O      0.625000000000     0.059247500000     0.879520000000     0          
O        O      0.711110000000     0.068297500000     0.837180000000     0          
O        O      0.705590000000     0.043535000000     0.929615000000     0          
O        O      0.682930000000     0.125000000000     0.904905000000     0          
O        O      0.553300000000     0.043550000000     0.671165000000     0          
O        O      0.527530000000     0.125000000000     0.693970000000     0          
O        O      0.712885000000     0.000000000000     0.589160000000     0          
T        Si     0.681200000000     0.175992500000     0.887720000000     0          
T        Si     0.510635000000     0.176100000000     0.694435000000     0          
O        O      0.711110000000     0.181702500000     0.837180000000     0          
O        O      0.705590000000     0.206465000000     0.929615000000     0          
O        O      0.500000000000     0.191515000000     0.750000000000     0          
O        O      0.553300000000     0.206450000000     0.671165000000     0          
T        Si     0.568800000000     0.074007500000     0.887720000000     0          
T        Si     0.739365000000     0.073900000000     0.694435000000     0          
O        O      0.538890000000     0.068297500000     0.837180000000     0          
O        O      0.544410000000     0.043535000000     0.929615000000     0          
O        O      0.750000000000     0.058485000000     0.750000000000     0          
O        O      0.696700000000     0.043550000000     0.671165000000     0          
T        Si     0.931200000000     0.074007500000     0.612280000000     0          
T        Si     0.760635000000     0.073900000000     0.805565000000     0          
O        O      0.961110000000     0.068297500000     0.662820000000     0          
O        O      0.955590000000     0.043535000000     0.570385000000     0          
O        O      0.803300000000     0.043550000000     0.828835000000     0          
T        Si     0.818800000000     0.175992500000     0.612280000000     0          
T        Si     0.989365000000     0.176100000000     0.805565000000     0          
O        O      0.788890000000     0.181702500000     0.662820000000     0          
O        O      0.794410000000     0.206465000000     0.570385000000     0          
O        O      0.946700000000     0.206450000000     0.828835000000     0          
T        Si     0.818800000000     0.324007500000     0.112280000000     0          
T        Si     0.989365000000     0.323900000000     0.305565000000     0          
T        Si     0.817215000000     0.250000000000     0.359990000000     0          
T        Si     0.762795000000     0.250000000000     0.057560000000     0          
O        O      0.875000000000     0.309247500000     0.120480000000     0          
O        O      0.788890000000     0.318297500000     0.162820000000     0          
O        O      0.794410000000     0.293535000000     0.070385000000     0          
O        O      0.817070000000     0.375000000000     0.095095000000     0          
O        O      0.500000000000     0.308485000000     0.250000000000     0          
O        O      0.946700000000     0.293550000000     0.328835000000     0          
O        O      0.972470000000     0.375000000000     0.306030000000     0          
O        O      0.787115000000     0.250000000000     0.410840000000     0          
O        O      0.875000000000     0.250000000000     0.372140000000     0          
O        O      0.750000000000     0.250000000000     0.000000000000     0          
T        Si     0.931200000000     0.425992500000     0.112280000000     0          
T        Si     0.760635000000     0.426100000000     0.305565000000     0          
T        Si     0.932785000000     0.250000000000     0.359990000000     0          
T        Si     0.987205000000     0.250000000000     0.057560000000     0          
O        O      0.875000000000     0.440752500000     0.120480000000     0          
O        O      0.961110000000     0.431702500000     0.162820000000     0          
O        O      0.955590000000     0.456465000000     0.070385000000     0          
O        O      0.932930000000     0.375000000000     0.095095000000     0          
O        O      0.750000000000     0.441515000000     0.250000000000     0          
O        O      0.803300000000     0.456450000000     0.328835000000     0          
O        O      0.777530000000     0.375000000000     0.306030000000     0          
O        O      0.962885000000     0.250000000000     0.410840000000     0          
O        O      0.500000000000     0.250000000000     0.000000000000     0          
T        Si     0.568800000000     0.425992500000     0.387720000000     0          
T        Si     0.739365000000     0.426100000000     0.194435000000     0          
T        Si     0.567215000000     0.250000000000     0.140010000000     0          
T        Si     0.512795000000     0.250000000000     0.442440000000     0          
O        O      0.625000000000     0.440752500000     0.379520000000     0          
O        O      0.538890000000     0.431702500000     0.337180000000     0          
O        O      0.544410000000     0.456465000000     0.429615000000     0          
O        O      0.567070000000     0.375000000000     0.404905000000     0          
O        O      0.696700000000     0.456450000000     0.171165000000     0          
O        O      0.722470000000     0.375000000000     0.193970000000     0          
O        O      0.537115000000     0.250000000000     0.089160000000     0          
O        O      0.625000000000     0.250000000000     0.127860000000     0          
T        Si     0.681200000000     0.324007500000     0.387720000000     0          
T        Si     0.510635000000     0.323900000000     0.194435000000     0          
T        Si     0.682785000000     0.250000000000     0.140010000000     0          
T        Si     0.737205000000     0.250000000000     0.442440000000     0          
O        O      0.625000000000     0.309247500000     0.379520000000     0          
O        O      0.711110000000     0.318297500000     0.337180000000     0          
O        O      0.705590000000     0.293535000000     0.429615000000     0          
O        O      0.682930000000     0.375000000000     0.404905000000     0          
O        O      0.553300000000     0.293550000000     0.171165000000     0          
O        O      0.527530000000     0.375000000000     0.193970000000     0          
O        O      0.712885000000     0.250000000000     0.089160000000     0          
T        Si     0.681200000000     0.425992500000     0.387720000000     0          
T        Si     0.510635000000     0.426100000000     0.194435000000     0          
O        O      0.711110000000     0.431702500000     0.337180000000     0          
O        O      0.705590000000     0.456465000000     0.429615000000     0          
O        O      0.500000000000     0.441515000000     0.250000000000     0          
O        O      0.553300000000     0.456450000000     0.171165000000     0          
T        Si     0.568800000000     0.324007500000     0.387720000000     0          
T        Si     0.739365000000     0.323900000000     0.194435000000     0          
O        O      0.538890000000     0.318297500000     0.337180000000     0          
O        O      0.544410000000     0.293535000000     0.429615000000     0          
O        O      0.750000000000     0.308485000000     0.250000000000     0          
O        O      0.696700000000     0.293550000000     0.171165000000     0          
T        Si     0.931200000000     0.324007500000     0.112280000000     0          
T        Si     0.760635000000     0.323900000000     0.305565000000     0          
O        O      0.961110000000     0.318297500000     0.162820000000     0          
O        O      0.955590000000     0.293535000000     0.070385000000     0          
O        O      0.803300000000     0.293550000000     0.328835000000     0          
T        Si     0.818800000000     0.425992500000     0.112280000000     0          
T        Si     0.989365000000     0.426100000000     0.305565000000     0          
O        O      0.788890000000     0.431702500000     0.162820000000     0          
O        O      0.794410000000     0.456465000000     0.070385000000     0          
O        O      0.946700000000     0.456450000000     0.328835000000     0          
T        Si     0.818800000000     0.324007500000     0.612280000000     0          
T        Si     0.989365000000     0.323900000000     0.805565000000     0          
T        Si     0.817215000000     0.250000000000     0.859990000000     0          
T        Si     0.762795000000     0.250000000000     0.557560000000     0          
O        O      0.875000000000     0.309247500000     0.620480000000     0          
O        O      0.788890000000     0.318297500000     0.662820000000     0          
O        O      0.794410000000     0.293535000000     0.570385000000     0          
O        O      0.817070000000     0.375000000000     0.595095000000     0          
O        O      0.500000000000     0.308485000000     0.750000000000     0          
O        O      0.946700000000     0.293550000000     0.828835000000     0          
O        O      0.972470000000     0.375000000000     0.806030000000     0          
O        O      0.787115000000     0.250000000000     0.910840000000     0          
O        O      0.875000000000     0.250000000000     0.872140000000     0          
O        O      0.750000000000     0.250000000000     0.500000000000     0          
T        Si     0.931200000000     0.425992500000     0.612280000000     0          
T        Si     0.760635000000     0.426100000000     0.805565000000     0          
T        Si     0.932785000000     0.250000000000     0.859990000000     0          
T        Si     0.987205000000     0.250000000000     0.557560000000     0          
O        O      0.875000000000     0.440752500000     0.620480000000     0          
O        O      0.961110000000     0.431702500000     0.662820000000     0          
O        O      0.955590000000     0.456465000000     0.570385000000     0          
O        O      0.932930000000     0.375000000000     0.595095000000     0          
O        O      0.750000000000     0.441515000000     0.750000000000     0          
O        O      0.803300000000     0.456450000000     0.828835000000     0          
O        O      0.777530000000     0.375000000000     0.806030000000     0          
O        O      0.962885000000     0.250000000000     0.910840000000     0          
O        O      0.500000000000     0.250000000000     0.500000000000     0          
T        Si     0.568800000000     0.425992500000     0.887720000000     0          
T        Si     0.739365000000     0.426100000000     0.694435000000     0          
T        Si     0.567215000000     0.250000000000     0.640010000000     0          
T        Si     0.512795000000     0.250000000000     0.942440000000     0          
O        O      0.625000000000     0.440752500000     0.879520000000     0          
O        O      0.538890000000     0.431702500000     0.837180000000     0          
O        O      0.544410000000     0.456465000000     0.929615000000     0          
O        O      0.567070000000     0.375000000000     0.904905000000     0          
O        O      0.696700000000     0.456450000000     0.671165000000     0          
O        O      0.722470000000     0.375000000000     0.693970000000     0          
O        O      0.537115000000     0.250000000000     0.589160000000     0          
O        O      0.625000000000     0.250000000000     0.627860000000     0          
T        Si     0.681200000000     0.324007500000     0.887720000000     0          
T        Si     0.510635000000     0.323900000000     0.694435000000     0          
T        Si     0.682785000000     0.250000000000     0.640010000000     0          
T        Si     0.737205000000     0.250000000000     0.942440000000     0          
O        O      0.625000000000     0.309247500000     0.879520000000     0          
O        O      0.711110000000     0.318297500000     0.837180000000     0          
O        O      0.705590000000     0.293535000000     0.929615000000     0          
O        O      0.682930000000     0.375000000000     0.904905000000     0          
O        O      0.553300000000     0.293550000000     0.671165000000     0          
O        O      0.527530000000     0.375000000000     0.693970000000     0          
O        O      0.712885000000     0.250000000000     0.589160000000     0          
T        Si     0.681200000000     0.425992500000     0.887720000000     0          
T        Si     0.510635000000     0.426100000000     0.694435000000     0          
O        O      0.711110000000     0.431702500000     0.837180000000     0          
O        O      0.705590000000     0.456465000000     0.929615000000     0          
O        O      0.500000000000     0.441515000000     0.750000000000     0          
O        O      0.553300000000     0.456450000000     0.671165000000     0          
T        Si     0.568800000000     0.324007500000     0.887720000000     0          
T        Si     0.739365000000     0.323900000000     0.694435000000     0          
O        O      0.538890000000     0.318297500000     0.837180000000     0          
O        O      0.544410000000     0.293535000000     0.929615000000     0          
O        O      0.750000000000     0.308485000000     0.750000000000     0          
O        O      0.696700000000     0.293550000000     0.671165000000     0          
T        Si     0.931200000000     0.324007500000     0.612280000000     0          
T        Si     0.760635000000     0.323900000000     0.805565000000     0          
O        O      0.961110000000     0.318297500000     0.662820000000     0          
O        O      0.955590000000     0.293535000000     0.570385000000     0          
O        O      0.803300000000     0.293550000000     0.828835000000     0          
T        Si     0.818800000000     0.425992500000     0.612280000000     0          
T        Si     0.989365000000     0.426100000000     0.805565000000     0          
O        O      0.788890000000     0.431702500000     0.662820000000     0          
O        O      0.794410000000     0.456465000000     0.570385000000     0          
O        O      0.946700000000     0.456450000000     0.828835000000     0          
T        Si     0.818800000000     0.574007500000     0.112280000000     0          
T        Si     0.989365000000     0.573900000000     0.305565000000     0          
T        Si     0.817215000000     0.500000000000     0.359990000000     0          
T        Si     0.762795000000     0.500000000000     0.057560000000     0          
O        O      0.875000000000     0.559247500000     0.120480000000     0          
O        O      0.788890000000     0.568297500000     0.162820000000     0          
O        O      0.794410000000     0.543535000000     0.070385000000     0          
O        O      0.817070000000     0.625000000000     0.095095000000     0          
O        O      0.500000000000     0.558485000000     0.250000000000     0          
O        O      0.946700000000     0.543550000000     0.328835000000     0          
O        O      0.972470000000     0.625000000000     0.306030000000     0          
O        O      0.787115000000     0.500000000000     0.410840000000     0          
O        O      0.875000000000     0.500000000000     0.372140000000     0          
O        O      0.750000000000     0.500000000000     0.000000000000     0          
T        Si     0.931200000000     0.675992500000     0.112280000000     0          
T        Si     0.760635000000     0.676100000000     0.305565000000     0          
T        Si     0.932785000000     0.500000000000     0.359990000000     0          
T        Si     0.987205000000     0.500000000000     0.057560000000     0          
O        O      0.875000000000     0.690752500000     0.120480000000     0          
O        O      0.961110000000     0.681702500000     0.162820000000     0          
O        O      0.955590000000     0.706465000000     0.070385000000     0          
O        O      0.932930000000     0.625000000000     0.095095000000     0          
O        O      0.750000000000     0.691515000000     0.250000000000     0          
O        O      0.803300000000     0.706450000000     0.328835000000     0          
O        O      0.777530000000     0.625000000000     0.306030000000     0          
O        O      0.962885000000     0.500000000000     0.410840000000     0          
O        O      0.500000000000     0.500000000000     0.000000000000     0          
T        Si     0.568800000000     0.675992500000     0.387720000000     0          
T        Si     0.739365000000     0.676100000000     0.194435000000     0          
T        Si     0.567215000000     0.500000000000     0.140010000000     0          
T        Si     0.512795000000     0.500000000000     0.442440000000     0          
O        O      0.625000000000     0.690752500000     0.379520000000     0          
O        O      0.538890000000     0.681702500000     0.337180000000     0          
O        O      0.544410000000     0.706465000000     0.429615000000     0          
O        O      0.567070000000     0.625000000000     0.404905000000     0          
O        O      0.696700000000     0.706450000000     0.171165000000     0          
O        O      0.722470000000     0.625000000000     0.193970000000     0          
O        O      0.537115000000     0.500000000000     0.089160000000     0          
O        O      0.625000000000     0.500000000000     0.127860000000     0          
T        Si     0.681200000000     0.574007500000     0.387720000000     0          
T        Si     0.510635000000     0.573900000000     0.194435000000     0          
T        Si     0.682785000000     0.500000000000     0.140010000000     0          
T        Si     0.737205000000     0.500000000000     0.442440000000     0          
O        O      0.625000000000     0.559247500000     0.379520000000     0          
O        O      0.711110000000     0.568297500000     0.337180000000     0          
O        O      0.705590000000     0.543535000000     0.429615000000     0          
O        O      0.682930000000     0.625000000000     0.404905000000     0          
O        O      0.553300000000     0.543550000000     0.171165000000     0          
O        O      0.527530000000     0.625000000000     0.193970000000     0          
O        O      0.712885000000     0.500000000000     0.089160000000     0          
T        Si     0.681200000000     0.675992500000     0.387720000000     0          
T        Si     0.510635000000     0.676100000000     0.194435000000     0          
O        O      0.711110000000     0.681702500000     0.337180000000     0          
O        O      0.705590000000     0.706465000000     0.429615000000     0          
O        O      0.500000000000     0.691515000000     0.250000000000     0          
O        O      0.553300000000     0.706450000000     0.171165000000     0          
T        Si     0.568800000000     0.574007500000     0.387720000000     0          
T        Si     0.739365000000     0.573900000000     0.194435000000     0          
O        O      0.538890000000     0.568297500000     0.337180000000     0          
O        O      0.544410000000     0.543535000000     0.429615000000     0          
O        O      0.750000000000     0.558485000000     0.250000000000     0          
O        O      0.696700000000     0.543550000000     0.171165000000     0          
T        Si     0.931200000000     0.574007500000     0.112280000000     0          
T        Si     0.760635000000     0.573900000000     0.305565000000     0          
O        O      0.961110000000     0.568297500000     0.162820000000     0          
O        O      0.955590000000     0.543535000000     0.070385000000     0          
O        O      0.803300000000     0.543550000000     0.328835000000     0          
T        Si     0.818800000000     0.675992500000     0.112280000000     0          
T        Si     0.989365000000     0.676100000000     0.305565000000     0          
O        O      0.788890000000     0.681702500000     0.162820000000     0          
O        O      0.794410000000     0.706465000000     0.070385000000     0          
O        O      0.946700000000     0.706450000000     0.328835000000     0          
T        Si     0.818800000000     0.574007500000     0.612280000000     0          
T        Si     0.989365000000     0.573900000000     0.805565000000     0          
T        Si     0.817215000000     0.500000000000     0.859990000000     0          
T        Si     0.762795000000     0.500000000000     0.557560000000     0          
O        O      0.875000000000     0.559247500000     0.620480000000     0          
O        O      0.788890000000     0.568297500000     0.662820000000     0          
O        O      0.794410000000     0.543535000000     0.570385000000     0          
O        O      0.817070000000     0.625000000000     0.595095000000     0          
O        O      0.500000000000     0.558485000000     0.750000000000     0          
O        O      0.946700000000     0.543550000000     0.828835000000     0          
O        O      0.972470000000     0.625000000000     0.806030000000     0          
O        O      0.787115000000     0.500000000000     0.910840000000     0          
O        O      0.875000000000     0.500000000000     0.872140000000     0          
O        O      0.750000000000     0.500000000000     0.500000000000     0          
T        Si     0.931200000000     0.675992500000     0.612280000000     0          
T        Si     0.760635000000     0.676100000000     0.805565000000     0          
T        Si     0.932785000000     0.500000000000     0.859990000000     0          
T        Si     0.987205000000     0.500000000000     0.557560000000     0          
O        O      0.875000000000     0.690752500000     0.620480000000     0          
O        O      0.961110000000     0.681702500000     0.662820000000     0          
O        O      0.955590000000     0.706465000000     0.570385000000     0          
O        O      0.932930000000     0.625000000000     0.595095000000     0          
O        O      0.750000000000     0.691515000000     0.750000000000     0          
O        O      0.803300000000     0.706450000000     0.828835000000     0          
O        O      0.777530000000     0.625000000000     0.806030000000     0          
O        O      0.962885000000     0.500000000000     0.910840000000     0          
O        O      0.500000000000     0.500000000000     0.500000000000     0          
T        Si     0.568800000000     0.675992500000     0.887720000000     0          
T        Si     0.739365000000     0.676100000000     0.694435000000     0          
T        Si     0.567215000000     0.500000000000     0.640010000000     0          
T        Si     0.512795000000     0.500000000000     0.942440000000     0          
O        O      0.625000000000     0.690752500000     0.879520000000     0          
O        O      0.538890000000     0.681702500000     0.837180000000     0          
O        O      0.544410000000     0.706465000000     0.929615000000     0          
O        O      0.567070000000     0.625000000000     0.904905000000     0          
O        O      0.696700000000     0.706450000000     0.671165000000     0          
O        O      0.722470000000     0.625000000000     0.693970000000     0          
O        O      0.537115000000     0.500000000000     0.589160000000     0          
O        O      0.625000000000     0.500000000000     0.627860000000     0          
T        Si     0.681200000000     0.574007500000     0.887720000000     0          
T        Si     0.510635000000     0.573900000000     0.694435000000     0          
T        Si     0.682785000000     0.500000000000     0.640010000000     0          
T        Si     0.737205000000     0.500000000000     0.942440000000     0          
O        O      0.625000000000     0.559247500000     0.879520000000     0          
O        O      0.711110000000     0.568297500000     0.837180000000     0          
O        O      0.705590000000     0.543535000000     0.929615000000     0          
O        O      0.682930000000     0.625000000000     0.904905000000     0          
O        O      0.553300000000     0.543550000000     0.671165000000     0          
O        O      0.527530000000     0.625000000000     0.693970000000     0          
O        O      0.712885000000     0.500000000000     0.589160000000     0          
T        Si     0.681200000000     0.675992500000     0.887720000000     0          
T        Si     0.510635000000     0.676100000000     0.694435000000     0          
O        O      0.711110000000     0.681702500000     0.837180000000     0          
O        O      0.705590000000     0.706465000000     0.929615000000     0          
O        O      0.500000000000     0.691515000000     0.750000000000     0          
O        O      0.553300000000     0.706450000000     0.671165000000     0          
T        Si     0.568800000000     0.574007500000     0.887720000000     0          
T        Si     0.739365000000     0.573900000000     0.694435000000     0          
O        O      0.538890000000     0.568297500000     0.837180000000     0          
O        O      0.544410000000     0.543535000000     0.929615000000     0          
O        O      0.750000000000     0.558485000000     0.750000000000     0          
O        O      0.696700000000     0.543550000000     0.671165000000     0          
T        Si     0.931200000000     0.574007500000     0.612280000000     0          
T        Si     0.760635000000     0.573900000000     0.805565000000     0          
O        O      0.961110000000     0.568297500000     0.662820000000     0          
O        O      0.955590000000     0.543535000000     0.570385000000     0          
O        O      0.803300000000     0.543550000000     0.828835000000     0          
T        Si     0.818800000000     0.675992500000     0.612280000000     0          
T        Si     0.989365000000     0.676100000000     0.805565000000     0          
O        O      0.788890000000     0.681702500000     0.662820000000     0          
O        O      0.794410000000     0.706465000000     0.570385000000     0          
O        O      0.946700000000     0.706450000000     0.828835000000     0          
T        Si     0.818800000000     0.824007500000     0.112280000000     0          
T        Si     0.989365000000     0.823900000000     0.305565000000     0          
T        Si     0.817215000000     0.750000000000     0.359990000000     0          
T        Si     0.762795000000     0.750000000000     0.057560000000     0          
O        O      0.875000000000     0.809247500000     0.120480000000     0          
O        O      0.788890000000     0.818297500000     0.162820000000     0          
O        O      0.794410000000     0.793535000000     0.070385000000     0          
O        O      0.817070000000     0.875000000000     0.095095000000     0          
O        O      0.500000000000     0.808485000000     0.250000000000     0          
O        O      0.946700000000     0.793550000000     0.328835000000     0          
O        O      0.972470000000     0.875000000000     0.306030000000     0          
O        O      0.787115000000     0.750000000000     0.410840000000     0          
O        O      0.875000000000     0.750000000000     0.372140000000     0          
O        O      0.750000000000     0.750000000000     0.000000000000     0          
T        Si     0.931200000000     0.925992500000     0.112280000000     0          
T        Si     0.760635000000     0.926100000000     0.305565000000     0          
T        Si     0.932785000000     0.750000000000     0.359990000000     0          
T        Si     0.987205000000     0.750000000000     0.057560000000     0          
O        O      0.875000000000     0.940752500000     0.120480000000     0          
O        O      0.961110000000     0.931702500000     0.162820000000     0          
O        O      0.955590000000     0.956465000000     0.070385000000     0          
O        O      0.932930000000     0.875000000000     0.095095000000     0          
O        O      0.750000000000     0.941515000000     0.250000000000     0          
O        O      0.803300000000     0.956450000000     0.328835000000     0          
O        O      0.777530000000     0.875000000000     0.306030000000     0          
O        O      0.962885000000     0.750000000000     0.410840000000     0          
O        O      0.500000000000     0.750000000000     0.000000000000     0          
T        Si     0.568800000000     0.925992500000     0.387720000000     0          
T        Si     0.739365000000     0.926100000000     0.194435000000     0          
T        Si     0.567215000000     0.750000000000     0.140010000000     0          
T        Si     0.512795000000     0.750000000000     0.442440000000     0          
O        O      0.625000000000     0.940752500000     0.379520000000     0          
O        O      0.538890000000     0.931702500000     0.337180000000     0          
O        O      0.544410000000     0.956465000000     0.429615000000     0          
O        O      0.567070000000     0.875000000000     0.404905000000     0          
O        O      0.696700000000     0.956450000000     0.171165000000     0          
O        O      0.722470000000     0.875000000000     0.193970000000     0          
O        O      0.537115000000     0.750000000000     0.089160000000     0          
O        O      0.625000000000     0.750000000000     0.127860000000     0          
T        Si     0.681200000000     0.824007500000     0.387720000000     0          
T        Si     0.510635000000     0.823900000000     0.194435000000     0          
T        Si     0.682785000000     0.750000000000     0.140010000000     0          
T        Si     0.737205000000     0.750000000000     0.442440000000     0          
O        O      0.625000000000     0.809247500000     0.379520000000     0          
O        O      0.711110000000     0.818297500000     0.337180000000     0          
O        O      0.705590000000     0.793535000000     0.429615000000     0          
O        O      0.682930000000     0.875000000000     0.404905000000     0          
O        O      0.553300000000     0.793550000000     0.171165000000     0          
O        O      0.527530000000     0.875000000000     0.193970000000     0          
O        O      0.712885000000     0.750000000000     0.089160000000     0          
T        Si     0.681200000000     0.925992500000     0.387720000000     0          
T        Si     0.510635000000     0.926100000000     0.194435000000     0          
O        O      0.711110000000     0.931702500000     0.337180000000     0          
O        O      0.705590000000     0.956465000000     0.429615000000     0          
O        O      0.500000000000     0.941515000000     0.250000000000     0          
O        O      0.553300000000     0.956450000000     0.171165000000     0          
T        Si     0.568800000000     0.824007500000     0.387720000000     0          
T        Si     0.739365000000     0.823900000000     0.194435000000     0          
O        O      0.538890000000     0.818297500000     0.337180000000     0          
O        O      0.544410000000     0.793535000000     0.429615000000     0          
O        O      0.750000000000     0.808485000000     0.250000000000     0          
O        O      0.696700000000     0.793550000000     0.171165000000     0          
T        Si     0.931200000000     0.824007500000     0.112280000000     0          
T        Si     0.760635000000     0.823900000000     0.305565000000     0          
O        O      0.961110000000     0.818297500000     0.162820000000     0          
O        O      0.955590000000     0.793535000000     0.070385000000     0          
O        O      0.803300000000     0.793550000000     0.328835000000     0          
T        Si     0.818800000000     0.925992500000     0.112280000000     0          
T        Si     0.989365000000     0.926100000000     0.305565000000     0          
O        O      0.788890000000     0.931702500000     0.162820000000     0          
O        O      0.794410000000     0.956465000000     0.070385000000     0          
O        O      0.946700000000     0.956450000000     0.328835000000     0          
T        Si     0.818800000000     0.824007500000     0.612280000000     0          
T        Si     0.989365000000     0.823900000000     0.805565000000     0          
T        Si     0.817215000000     0.750000000000     0.859990000000     0          
T        Si     0.762795000000     0.750000000000     0.557560000000     0          
O        O      0.875000000000     0.809247500000     0.620480000000     0          
O        O      0.788890000000     0.818297500000     0.662820000000     0          
O        O      0.794410000000     0.793535000000     0.570385000000     0          
O        O      0.817070000000     0.875000000000     0.595095000000     0          
O        O      0.500000000000     0.808485000000     0.750000000000     0          
O        O      0.946700000000     0.793550000000     0.828835000000     0          
O        O      0.972470000000     0.875000000000     0.806030000000     0          
O        O      0.787115000000     0.750000000000     0.910840000000     0          
O        O      0.875000000000     0.750000000000     0.872140000000     0          
O        O      0.750000000000     0.750000000000     0.500000000000     0          
T        Si     0.931200000000     0.925992500000     0.612280000000     0          
T        Si     0.760635000000     0.926100000000     0.805565000000     0          
T        Si     0.932785000000     0.750000000000     0.859990000000     0          
T        Si     0.987205000000     0.750000000000     0.557560000000     0          
O        O      0.875000000000     0.940752500000     0.620480000000     0          
O        O      0.961110000000     0.931702500000     0.662820000000     0          
O        O      0.955590000000     0.956465000000     0.570385000000     0          
O        O      0.932930000000     0.875000000000     0.595095000000     0          
O        O      0.750000000000     0.941515000000     0.750000000000     0          
O        O      0.803300000000     0.956450000000     0.828835000000     0          
O        O      0.777530000000     0.875000000000     0.806030000000     0          
O        O      0.962885000000     0.750000000000     0.910840000000     0          
O        O      0.500000000000     0.750000000000     0.500000000000     0          
T        Si     0.568800000000     0.925992500000     0.887720000000     0          
T        Si     0.739365000000     0.926100000000     0.694435000000     0          
T        Si     0.567215000000     0.750000000000     0.640010000000     0          
T        Si     0.512795000000     0.750000000000     0.942440000000     0          
O        O      0.625000000000     0.940752500000     0.879520000000     0          
O        O      0.538890000000     0.931702500000     0.837180000000     0          
O        O      0.544410000000     0.956465000000     0.929615000000     0          
O        O      0.567070000000     0.875000000000     0.904905000000     0          
O        O      0.696700000000     0.956450000000     0.671165000000     0          
O        O      0.722470000000     0.875000000000     0.693970000000     0          
O        O      0.537115000000     0.750000000000     0.589160000000     0          
O        O      0.625000000000     0.750000000000     0.627860000000     0          
T        Si     0.681200000000     0.824007500000     0.887720000000     0          
T        Si     0.510635000000     0.823900000000     0.694435000000     0          
T        Si     0.682785000000     0.750000000000     0.640010000000     0          
T        Si     0.737205000000     0.750000000000     0.942440000000     0          
O        O      0.625000000000     0.809247500000     0.879520000000     0          
O        O      0.711110000000     0.818297500000     0.837180000000     0          
O        O      0.705590000000     0.793535000000     0.929615000000     0          
O        O      0.682930000000     0.875000000000     0.904905000000     0          
O        O      0.553300000000     0.793550000000     0.671165000000     0          
O        O      0.527530000000     0.875000000000     0.693970000000     0          
O        O      0.712885000000     0.750000000000     0.589160000000     0          
T        Si     0.681200000000     0.925992500000     0.887720000000     0          
T        Si     0.510635000000     0.926100000000     0.694435000000     0          
O        O      0.711110000000     0.931702500000     0.837180000000     0          
O        O      0.705590000000     0.956465000000     0.929615000000     0          
O        O      0.500000000000     0.941515000000     0.750000000000     0          
O        O      0.553300000000     0.956450000000     0.671165000000     0          
T        Si     0.568800000000     0.824007500000     0.887720000000     0          
T        Si     0.739365000000     0.823900000000     0.694435000000     0          
O        O      0.538890000000     0.818297500000     0.837180000000     0          
O        O      0.544410000000     0.793535000000     0.929615000000     0          
O        O      0.750000000000     0.808485000000     0.750000000000     0          
O        O      0.696700000000     0.793550000000     0.671165000000     0          
T        Si     0.931200000000     0.824007500000     0.612280000000     0          
T        Si     0.760635000000     0.823900000000     0.805565000000     0          
O        O      0.961110000000     0.818297500000     0.662820000000     0          
O        O      0.955590000000     0.793535000000     0.570385000000     0          
O        O      0.803300000000     0.793550000000     0.828835000000     0          
T        Si     0.818800000000     0.925992500000     0.612280000000     0          
T        Si     0.989365000000     0.926100000000     0.805565000000     0          
O        O      0.788890000000     0.931702500000     0.662820000000     0          
O        O      0.794410000000     0.956465000000     0.570385000000     0          
O        O      0.946700000000     0.956450000000     0.828835000000     0          


