data_zeolite

_audit_creation_method RASPA-1.0
_audit_creation_date 2021-6-7
_audit_author_name ''

_cell_length_a    7.156
_cell_length_b    7.156
_cell_length_c    41.842
_cell_angle_alpha 90
_cell_angle_beta  90
_cell_angle_gamma 90
_cell_volume      34282.5

_symmetry_cell_setting          tetragonal
_symmetry_space_group_name_Hall 'P 1'
_symmetry_space_group_name_H-M  'P 1'
_symmetry_Int_Tables_number     1

_symmetry_equiv_pos_as_xyz 'x,y,z'

loop_
_atom_site_label
_atom_site_type_symbol
_atom_site_fract_x
_atom_site_fract_y
_atom_site_fract_z
_atom_site_charge
T        Si     0.073550000000     0.000000000000     0.189400000000     0          
T        Si     0.000000000000     0.054950000000     0.086900000000     0          
T        Si     0.125000000000     0.000000000000     0.250000000000     0          
T        Si     0.000000000000     0.198550000000     0.439400000000     0          
T        Si     0.195050000000     0.125000000000     0.336900000000     0          
T        Si     0.000000000000     0.000000000000     0.500000000000     0          
T        Si     0.051450000000     0.125000000000     0.689400000000     0          
T        Si     0.125000000000     0.070050000000     0.586900000000     0          
T        Si     0.000000000000     0.125000000000     0.750000000000     0          
T        Si     0.125000000000     0.176450000000     0.939400000000     0          
T        Si     0.179950000000     0.000000000000     0.836900000000     0          
T        Si     0.125000000000     0.125000000000     0.000000000000     0          
T        Si     0.073550000000     0.125000000000     0.060600000000     0          
T        Si     0.000000000000     0.070050000000     0.163100000000     0          
T        Si     0.125000000000     0.198550000000     0.310600000000     0          
T        Si     0.179950000000     0.125000000000     0.413100000000     0          
T        Si     0.051450000000     0.000000000000     0.560600000000     0          
T        Si     0.125000000000     0.054950000000     0.663100000000     0          
T        Si     0.000000000000     0.176450000000     0.810600000000     0          
T        Si     0.195050000000     0.000000000000     0.913100000000     0          
T        Si     0.176450000000     0.125000000000     0.060600000000     0          
T        Si     0.054950000000     0.000000000000     0.913100000000     0          
T        Si     0.198550000000     0.000000000000     0.560600000000     0          
T        Si     0.070050000000     0.125000000000     0.413100000000     0          
T        Si     0.176450000000     0.000000000000     0.189400000000     0          
T        Si     0.070050000000     0.000000000000     0.836900000000     0          
T        Si     0.198550000000     0.125000000000     0.689400000000     0          
T        Si     0.054950000000     0.125000000000     0.336900000000     0          
T        Si     0.125000000000     0.179950000000     0.586900000000     0          
T        Si     0.125000000000     0.073550000000     0.939400000000     0          
T        Si     0.000000000000     0.195050000000     0.086900000000     0          
T        Si     0.000000000000     0.051450000000     0.439400000000     0          
T        Si     0.125000000000     0.195050000000     0.663100000000     0          
T        Si     0.000000000000     0.073550000000     0.810600000000     0          
T        Si     0.000000000000     0.179950000000     0.163100000000     0          
T        Si     0.125000000000     0.051450000000     0.310600000000     0          
T        Si     0.073550000000     0.250000000000     0.189400000000     0          
T        Si     0.000000000000     0.304950000000     0.086900000000     0          
T        Si     0.125000000000     0.250000000000     0.250000000000     0          
T        Si     0.000000000000     0.448550000000     0.439400000000     0          
T        Si     0.195050000000     0.375000000000     0.336900000000     0          
T        Si     0.000000000000     0.250000000000     0.500000000000     0          
T        Si     0.051450000000     0.375000000000     0.689400000000     0          
T        Si     0.125000000000     0.320050000000     0.586900000000     0          
T        Si     0.000000000000     0.375000000000     0.750000000000     0          
T        Si     0.125000000000     0.426450000000     0.939400000000     0          
T        Si     0.179950000000     0.250000000000     0.836900000000     0          
T        Si     0.125000000000     0.375000000000     0.000000000000     0          
T        Si     0.073550000000     0.375000000000     0.060600000000     0          
T        Si     0.000000000000     0.320050000000     0.163100000000     0          
T        Si     0.125000000000     0.448550000000     0.310600000000     0          
T        Si     0.179950000000     0.375000000000     0.413100000000     0          
T        Si     0.051450000000     0.250000000000     0.560600000000     0          
T        Si     0.125000000000     0.304950000000     0.663100000000     0          
T        Si     0.000000000000     0.426450000000     0.810600000000     0          
T        Si     0.195050000000     0.250000000000     0.913100000000     0          
T        Si     0.176450000000     0.375000000000     0.060600000000     0          
T        Si     0.054950000000     0.250000000000     0.913100000000     0          
T        Si     0.198550000000     0.250000000000     0.560600000000     0          
T        Si     0.070050000000     0.375000000000     0.413100000000     0          
T        Si     0.176450000000     0.250000000000     0.189400000000     0          
T        Si     0.070050000000     0.250000000000     0.836900000000     0          
T        Si     0.198550000000     0.375000000000     0.689400000000     0          
T        Si     0.054950000000     0.375000000000     0.336900000000     0          
T        Si     0.125000000000     0.429950000000     0.586900000000     0          
T        Si     0.125000000000     0.323550000000     0.939400000000     0          
T        Si     0.000000000000     0.445050000000     0.086900000000     0          
T        Si     0.000000000000     0.301450000000     0.439400000000     0          
T        Si     0.125000000000     0.445050000000     0.663100000000     0          
T        Si     0.000000000000     0.323550000000     0.810600000000     0          
T        Si     0.000000000000     0.429950000000     0.163100000000     0          
T        Si     0.125000000000     0.301450000000     0.310600000000     0          
T        Si     0.073550000000     0.500000000000     0.189400000000     0          
T        Si     0.000000000000     0.554950000000     0.086900000000     0          
T        Si     0.125000000000     0.500000000000     0.250000000000     0          
T        Si     0.000000000000     0.698550000000     0.439400000000     0          
T        Si     0.195050000000     0.625000000000     0.336900000000     0          
T        Si     0.000000000000     0.500000000000     0.500000000000     0          
T        Si     0.051450000000     0.625000000000     0.689400000000     0          
T        Si     0.125000000000     0.570050000000     0.586900000000     0          
T        Si     0.000000000000     0.625000000000     0.750000000000     0          
T        Si     0.125000000000     0.676450000000     0.939400000000     0          
T        Si     0.179950000000     0.500000000000     0.836900000000     0          
T        Si     0.125000000000     0.625000000000     0.000000000000     0          
T        Si     0.073550000000     0.625000000000     0.060600000000     0          
T        Si     0.000000000000     0.570050000000     0.163100000000     0          
T        Si     0.125000000000     0.698550000000     0.310600000000     0          
T        Si     0.179950000000     0.625000000000     0.413100000000     0          
T        Si     0.051450000000     0.500000000000     0.560600000000     0          
T        Si     0.125000000000     0.554950000000     0.663100000000     0          
T        Si     0.000000000000     0.676450000000     0.810600000000     0          
T        Si     0.195050000000     0.500000000000     0.913100000000     0          
T        Si     0.176450000000     0.625000000000     0.060600000000     0          
T        Si     0.054950000000     0.500000000000     0.913100000000     0          
T        Si     0.198550000000     0.500000000000     0.560600000000     0          
T        Si     0.070050000000     0.625000000000     0.413100000000     0          
T        Si     0.176450000000     0.500000000000     0.189400000000     0          
T        Si     0.070050000000     0.500000000000     0.836900000000     0          
T        Si     0.198550000000     0.625000000000     0.689400000000     0          
T        Si     0.054950000000     0.625000000000     0.336900000000     0          
T        Si     0.125000000000     0.679950000000     0.586900000000     0          
T        Si     0.125000000000     0.573550000000     0.939400000000     0          
T        Si     0.000000000000     0.695050000000     0.086900000000     0          
T        Si     0.000000000000     0.551450000000     0.439400000000     0          
T        Si     0.125000000000     0.695050000000     0.663100000000     0          
T        Si     0.000000000000     0.573550000000     0.810600000000     0          
T        Si     0.000000000000     0.679950000000     0.163100000000     0          
T        Si     0.125000000000     0.551450000000     0.310600000000     0          
T        Si     0.073550000000     0.750000000000     0.189400000000     0          
T        Si     0.000000000000     0.804950000000     0.086900000000     0          
T        Si     0.125000000000     0.750000000000     0.250000000000     0          
T        Si     0.000000000000     0.948550000000     0.439400000000     0          
T        Si     0.195050000000     0.875000000000     0.336900000000     0          
T        Si     0.000000000000     0.750000000000     0.500000000000     0          
T        Si     0.051450000000     0.875000000000     0.689400000000     0          
T        Si     0.125000000000     0.820050000000     0.586900000000     0          
T        Si     0.000000000000     0.875000000000     0.750000000000     0          
T        Si     0.125000000000     0.926450000000     0.939400000000     0          
T        Si     0.179950000000     0.750000000000     0.836900000000     0          
T        Si     0.125000000000     0.875000000000     0.000000000000     0          
T        Si     0.073550000000     0.875000000000     0.060600000000     0          
T        Si     0.000000000000     0.820050000000     0.163100000000     0          
T        Si     0.125000000000     0.948550000000     0.310600000000     0          
T        Si     0.179950000000     0.875000000000     0.413100000000     0          
T        Si     0.051450000000     0.750000000000     0.560600000000     0          
T        Si     0.125000000000     0.804950000000     0.663100000000     0          
T        Si     0.000000000000     0.926450000000     0.810600000000     0          
T        Si     0.195050000000     0.750000000000     0.913100000000     0          
T        Si     0.176450000000     0.875000000000     0.060600000000     0          
T        Si     0.054950000000     0.750000000000     0.913100000000     0          
T        Si     0.198550000000     0.750000000000     0.560600000000     0          
T        Si     0.070050000000     0.875000000000     0.413100000000     0          
T        Si     0.176450000000     0.750000000000     0.189400000000     0          
T        Si     0.070050000000     0.750000000000     0.836900000000     0          
T        Si     0.198550000000     0.875000000000     0.689400000000     0          
T        Si     0.054950000000     0.875000000000     0.336900000000     0          
T        Si     0.125000000000     0.929950000000     0.586900000000     0          
T        Si     0.125000000000     0.823550000000     0.939400000000     0          
T        Si     0.000000000000     0.945050000000     0.086900000000     0          
T        Si     0.000000000000     0.801450000000     0.439400000000     0          
T        Si     0.125000000000     0.945050000000     0.663100000000     0          
T        Si     0.000000000000     0.823550000000     0.810600000000     0          
T        Si     0.000000000000     0.929950000000     0.163100000000     0          
T        Si     0.125000000000     0.801450000000     0.310600000000     0          
T        Si     0.323550000000     0.000000000000     0.189400000000     0          
T        Si     0.250000000000     0.054950000000     0.086900000000     0          
T        Si     0.375000000000     0.000000000000     0.250000000000     0          
T        Si     0.250000000000     0.198550000000     0.439400000000     0          
T        Si     0.445050000000     0.125000000000     0.336900000000     0          
T        Si     0.250000000000     0.000000000000     0.500000000000     0          
T        Si     0.301450000000     0.125000000000     0.689400000000     0          
T        Si     0.375000000000     0.070050000000     0.586900000000     0          
T        Si     0.250000000000     0.125000000000     0.750000000000     0          
T        Si     0.375000000000     0.176450000000     0.939400000000     0          
T        Si     0.429950000000     0.000000000000     0.836900000000     0          
T        Si     0.375000000000     0.125000000000     0.000000000000     0          
T        Si     0.323550000000     0.125000000000     0.060600000000     0          
T        Si     0.250000000000     0.070050000000     0.163100000000     0          
T        Si     0.375000000000     0.198550000000     0.310600000000     0          
T        Si     0.429950000000     0.125000000000     0.413100000000     0          
T        Si     0.301450000000     0.000000000000     0.560600000000     0          
T        Si     0.375000000000     0.054950000000     0.663100000000     0          
T        Si     0.250000000000     0.176450000000     0.810600000000     0          
T        Si     0.445050000000     0.000000000000     0.913100000000     0          
T        Si     0.426450000000     0.125000000000     0.060600000000     0          
T        Si     0.304950000000     0.000000000000     0.913100000000     0          
T        Si     0.448550000000     0.000000000000     0.560600000000     0          
T        Si     0.320050000000     0.125000000000     0.413100000000     0          
T        Si     0.426450000000     0.000000000000     0.189400000000     0          
T        Si     0.320050000000     0.000000000000     0.836900000000     0          
T        Si     0.448550000000     0.125000000000     0.689400000000     0          
T        Si     0.304950000000     0.125000000000     0.336900000000     0          
T        Si     0.375000000000     0.179950000000     0.586900000000     0          
T        Si     0.375000000000     0.073550000000     0.939400000000     0          
T        Si     0.250000000000     0.195050000000     0.086900000000     0          
T        Si     0.250000000000     0.051450000000     0.439400000000     0          
T        Si     0.375000000000     0.195050000000     0.663100000000     0          
T        Si     0.250000000000     0.073550000000     0.810600000000     0          
T        Si     0.250000000000     0.179950000000     0.163100000000     0          
T        Si     0.375000000000     0.051450000000     0.310600000000     0          
T        Si     0.323550000000     0.250000000000     0.189400000000     0          
T        Si     0.250000000000     0.304950000000     0.086900000000     0          
T        Si     0.375000000000     0.250000000000     0.250000000000     0          
T        Si     0.250000000000     0.448550000000     0.439400000000     0          
T        Si     0.445050000000     0.375000000000     0.336900000000     0          
T        Si     0.250000000000     0.250000000000     0.500000000000     0          
T        Si     0.301450000000     0.375000000000     0.689400000000     0          
T        Si     0.375000000000     0.320050000000     0.586900000000     0          
T        Si     0.250000000000     0.375000000000     0.750000000000     0          
T        Si     0.375000000000     0.426450000000     0.939400000000     0          
T        Si     0.429950000000     0.250000000000     0.836900000000     0          
T        Si     0.375000000000     0.375000000000     0.000000000000     0          
T        Si     0.323550000000     0.375000000000     0.060600000000     0          
T        Si     0.250000000000     0.320050000000     0.163100000000     0          
T        Si     0.375000000000     0.448550000000     0.310600000000     0          
T        Si     0.429950000000     0.375000000000     0.413100000000     0          
T        Si     0.301450000000     0.250000000000     0.560600000000     0          
T        Si     0.375000000000     0.304950000000     0.663100000000     0          
T        Si     0.250000000000     0.426450000000     0.810600000000     0          
T        Si     0.445050000000     0.250000000000     0.913100000000     0          
T        Si     0.426450000000     0.375000000000     0.060600000000     0          
T        Si     0.304950000000     0.250000000000     0.913100000000     0          
T        Si     0.448550000000     0.250000000000     0.560600000000     0          
T        Si     0.320050000000     0.375000000000     0.413100000000     0          
T        Si     0.426450000000     0.250000000000     0.189400000000     0          
T        Si     0.320050000000     0.250000000000     0.836900000000     0          
T        Si     0.448550000000     0.375000000000     0.689400000000     0          
T        Si     0.304950000000     0.375000000000     0.336900000000     0          
T        Si     0.375000000000     0.429950000000     0.586900000000     0          
T        Si     0.375000000000     0.323550000000     0.939400000000     0          
T        Si     0.250000000000     0.445050000000     0.086900000000     0          
T        Si     0.250000000000     0.301450000000     0.439400000000     0          
T        Si     0.375000000000     0.445050000000     0.663100000000     0          
T        Si     0.250000000000     0.323550000000     0.810600000000     0          
T        Si     0.250000000000     0.429950000000     0.163100000000     0          
T        Si     0.375000000000     0.301450000000     0.310600000000     0          
T        Si     0.323550000000     0.500000000000     0.189400000000     0          
T        Si     0.250000000000     0.554950000000     0.086900000000     0          
T        Si     0.375000000000     0.500000000000     0.250000000000     0          
T        Si     0.250000000000     0.698550000000     0.439400000000     0          
T        Si     0.445050000000     0.625000000000     0.336900000000     0          
T        Si     0.250000000000     0.500000000000     0.500000000000     0          
T        Si     0.301450000000     0.625000000000     0.689400000000     0          
T        Si     0.375000000000     0.570050000000     0.586900000000     0          
T        Si     0.250000000000     0.625000000000     0.750000000000     0          
T        Si     0.375000000000     0.676450000000     0.939400000000     0          
T        Si     0.429950000000     0.500000000000     0.836900000000     0          
T        Si     0.375000000000     0.625000000000     0.000000000000     0          
T        Si     0.323550000000     0.625000000000     0.060600000000     0          
T        Si     0.250000000000     0.570050000000     0.163100000000     0          
T        Si     0.375000000000     0.698550000000     0.310600000000     0          
T        Si     0.429950000000     0.625000000000     0.413100000000     0          
T        Si     0.301450000000     0.500000000000     0.560600000000     0          
T        Si     0.375000000000     0.554950000000     0.663100000000     0          
T        Si     0.250000000000     0.676450000000     0.810600000000     0          
T        Si     0.445050000000     0.500000000000     0.913100000000     0          
T        Si     0.426450000000     0.625000000000     0.060600000000     0          
T        Si     0.304950000000     0.500000000000     0.913100000000     0          
T        Si     0.448550000000     0.500000000000     0.560600000000     0          
T        Si     0.320050000000     0.625000000000     0.413100000000     0          
T        Si     0.426450000000     0.500000000000     0.189400000000     0          
T        Si     0.320050000000     0.500000000000     0.836900000000     0          
T        Si     0.448550000000     0.625000000000     0.689400000000     0          
T        Si     0.304950000000     0.625000000000     0.336900000000     0          
T        Si     0.375000000000     0.679950000000     0.586900000000     0          
T        Si     0.375000000000     0.573550000000     0.939400000000     0          
T        Si     0.250000000000     0.695050000000     0.086900000000     0          
T        Si     0.250000000000     0.551450000000     0.439400000000     0          
T        Si     0.375000000000     0.695050000000     0.663100000000     0          
T        Si     0.250000000000     0.573550000000     0.810600000000     0          
T        Si     0.250000000000     0.679950000000     0.163100000000     0          
T        Si     0.375000000000     0.551450000000     0.310600000000     0          
T        Si     0.323550000000     0.750000000000     0.189400000000     0          
T        Si     0.250000000000     0.804950000000     0.086900000000     0          
T        Si     0.375000000000     0.750000000000     0.250000000000     0          
T        Si     0.250000000000     0.948550000000     0.439400000000     0          
T        Si     0.445050000000     0.875000000000     0.336900000000     0          
T        Si     0.250000000000     0.750000000000     0.500000000000     0          
T        Si     0.301450000000     0.875000000000     0.689400000000     0          
T        Si     0.375000000000     0.820050000000     0.586900000000     0          
T        Si     0.250000000000     0.875000000000     0.750000000000     0          
T        Si     0.375000000000     0.926450000000     0.939400000000     0          
T        Si     0.429950000000     0.750000000000     0.836900000000     0          
T        Si     0.375000000000     0.875000000000     0.000000000000     0          
T        Si     0.323550000000     0.875000000000     0.060600000000     0          
T        Si     0.250000000000     0.820050000000     0.163100000000     0          
T        Si     0.375000000000     0.948550000000     0.310600000000     0          
T        Si     0.429950000000     0.875000000000     0.413100000000     0          
T        Si     0.301450000000     0.750000000000     0.560600000000     0          
T        Si     0.375000000000     0.804950000000     0.663100000000     0          
T        Si     0.250000000000     0.926450000000     0.810600000000     0          
T        Si     0.445050000000     0.750000000000     0.913100000000     0          
T        Si     0.426450000000     0.875000000000     0.060600000000     0          
T        Si     0.304950000000     0.750000000000     0.913100000000     0          
T        Si     0.448550000000     0.750000000000     0.560600000000     0          
T        Si     0.320050000000     0.875000000000     0.413100000000     0          
T        Si     0.426450000000     0.750000000000     0.189400000000     0          
T        Si     0.320050000000     0.750000000000     0.836900000000     0          
T        Si     0.448550000000     0.875000000000     0.689400000000     0          
T        Si     0.304950000000     0.875000000000     0.336900000000     0          
T        Si     0.375000000000     0.929950000000     0.586900000000     0          
T        Si     0.375000000000     0.823550000000     0.939400000000     0          
T        Si     0.250000000000     0.945050000000     0.086900000000     0          
T        Si     0.250000000000     0.801450000000     0.439400000000     0          
T        Si     0.375000000000     0.945050000000     0.663100000000     0          
T        Si     0.250000000000     0.823550000000     0.810600000000     0          
T        Si     0.250000000000     0.929950000000     0.163100000000     0          
T        Si     0.375000000000     0.801450000000     0.310600000000     0          
T        Si     0.573550000000     0.000000000000     0.189400000000     0          
T        Si     0.500000000000     0.054950000000     0.086900000000     0          
T        Si     0.625000000000     0.000000000000     0.250000000000     0          
T        Si     0.500000000000     0.198550000000     0.439400000000     0          
T        Si     0.695050000000     0.125000000000     0.336900000000     0          
T        Si     0.500000000000     0.000000000000     0.500000000000     0          
T        Si     0.551450000000     0.125000000000     0.689400000000     0          
T        Si     0.625000000000     0.070050000000     0.586900000000     0          
T        Si     0.500000000000     0.125000000000     0.750000000000     0          
T        Si     0.625000000000     0.176450000000     0.939400000000     0          
T        Si     0.679950000000     0.000000000000     0.836900000000     0          
T        Si     0.625000000000     0.125000000000     0.000000000000     0          
T        Si     0.573550000000     0.125000000000     0.060600000000     0          
T        Si     0.500000000000     0.070050000000     0.163100000000     0          
T        Si     0.625000000000     0.198550000000     0.310600000000     0          
T        Si     0.679950000000     0.125000000000     0.413100000000     0          
T        Si     0.551450000000     0.000000000000     0.560600000000     0          
T        Si     0.625000000000     0.054950000000     0.663100000000     0          
T        Si     0.500000000000     0.176450000000     0.810600000000     0          
T        Si     0.695050000000     0.000000000000     0.913100000000     0          
T        Si     0.676450000000     0.125000000000     0.060600000000     0          
T        Si     0.554950000000     0.000000000000     0.913100000000     0          
T        Si     0.698550000000     0.000000000000     0.560600000000     0          
T        Si     0.570050000000     0.125000000000     0.413100000000     0          
T        Si     0.676450000000     0.000000000000     0.189400000000     0          
T        Si     0.570050000000     0.000000000000     0.836900000000     0          
T        Si     0.698550000000     0.125000000000     0.689400000000     0          
T        Si     0.554950000000     0.125000000000     0.336900000000     0          
T        Si     0.625000000000     0.179950000000     0.586900000000     0          
T        Si     0.625000000000     0.073550000000     0.939400000000     0          
T        Si     0.500000000000     0.195050000000     0.086900000000     0          
T        Si     0.500000000000     0.051450000000     0.439400000000     0          
T        Si     0.625000000000     0.195050000000     0.663100000000     0          
T        Si     0.500000000000     0.073550000000     0.810600000000     0          
T        Si     0.500000000000     0.179950000000     0.163100000000     0          
T        Si     0.625000000000     0.051450000000     0.310600000000     0          
T        Si     0.573550000000     0.250000000000     0.189400000000     0          
T        Si     0.500000000000     0.304950000000     0.086900000000     0          
T        Si     0.625000000000     0.250000000000     0.250000000000     0          
T        Si     0.500000000000     0.448550000000     0.439400000000     0          
T        Si     0.695050000000     0.375000000000     0.336900000000     0          
T        Si     0.500000000000     0.250000000000     0.500000000000     0          
T        Si     0.551450000000     0.375000000000     0.689400000000     0          
T        Si     0.625000000000     0.320050000000     0.586900000000     0          
T        Si     0.500000000000     0.375000000000     0.750000000000     0          
T        Si     0.625000000000     0.426450000000     0.939400000000     0          
T        Si     0.679950000000     0.250000000000     0.836900000000     0          
T        Si     0.625000000000     0.375000000000     0.000000000000     0          
T        Si     0.573550000000     0.375000000000     0.060600000000     0          
T        Si     0.500000000000     0.320050000000     0.163100000000     0          
T        Si     0.625000000000     0.448550000000     0.310600000000     0          
T        Si     0.679950000000     0.375000000000     0.413100000000     0          
T        Si     0.551450000000     0.250000000000     0.560600000000     0          
T        Si     0.625000000000     0.304950000000     0.663100000000     0          
T        Si     0.500000000000     0.426450000000     0.810600000000     0          
T        Si     0.695050000000     0.250000000000     0.913100000000     0          
T        Si     0.676450000000     0.375000000000     0.060600000000     0          
T        Si     0.554950000000     0.250000000000     0.913100000000     0          
T        Si     0.698550000000     0.250000000000     0.560600000000     0          
T        Si     0.570050000000     0.375000000000     0.413100000000     0          
T        Si     0.676450000000     0.250000000000     0.189400000000     0          
T        Si     0.570050000000     0.250000000000     0.836900000000     0          
T        Si     0.698550000000     0.375000000000     0.689400000000     0          
T        Si     0.554950000000     0.375000000000     0.336900000000     0          
T        Si     0.625000000000     0.429950000000     0.586900000000     0          
T        Si     0.625000000000     0.323550000000     0.939400000000     0          
T        Si     0.500000000000     0.445050000000     0.086900000000     0          
T        Si     0.500000000000     0.301450000000     0.439400000000     0          
T        Si     0.625000000000     0.445050000000     0.663100000000     0          
T        Si     0.500000000000     0.323550000000     0.810600000000     0          
T        Si     0.500000000000     0.429950000000     0.163100000000     0          
T        Si     0.625000000000     0.301450000000     0.310600000000     0          
T        Si     0.573550000000     0.500000000000     0.189400000000     0          
T        Si     0.500000000000     0.554950000000     0.086900000000     0          
T        Si     0.625000000000     0.500000000000     0.250000000000     0          
T        Si     0.500000000000     0.698550000000     0.439400000000     0          
T        Si     0.695050000000     0.625000000000     0.336900000000     0          
T        Si     0.500000000000     0.500000000000     0.500000000000     0          
T        Si     0.551450000000     0.625000000000     0.689400000000     0          
T        Si     0.625000000000     0.570050000000     0.586900000000     0          
T        Si     0.500000000000     0.625000000000     0.750000000000     0          
T        Si     0.625000000000     0.676450000000     0.939400000000     0          
T        Si     0.679950000000     0.500000000000     0.836900000000     0          
T        Si     0.625000000000     0.625000000000     0.000000000000     0          
T        Si     0.573550000000     0.625000000000     0.060600000000     0          
T        Si     0.500000000000     0.570050000000     0.163100000000     0          
T        Si     0.625000000000     0.698550000000     0.310600000000     0          
T        Si     0.679950000000     0.625000000000     0.413100000000     0          
T        Si     0.551450000000     0.500000000000     0.560600000000     0          
T        Si     0.625000000000     0.554950000000     0.663100000000     0          
T        Si     0.500000000000     0.676450000000     0.810600000000     0          
T        Si     0.695050000000     0.500000000000     0.913100000000     0          
T        Si     0.676450000000     0.625000000000     0.060600000000     0          
T        Si     0.554950000000     0.500000000000     0.913100000000     0          
T        Si     0.698550000000     0.500000000000     0.560600000000     0          
T        Si     0.570050000000     0.625000000000     0.413100000000     0          
T        Si     0.676450000000     0.500000000000     0.189400000000     0          
T        Si     0.570050000000     0.500000000000     0.836900000000     0          
T        Si     0.698550000000     0.625000000000     0.689400000000     0          
T        Si     0.554950000000     0.625000000000     0.336900000000     0          
T        Si     0.625000000000     0.679950000000     0.586900000000     0          
T        Si     0.625000000000     0.573550000000     0.939400000000     0          
T        Si     0.500000000000     0.695050000000     0.086900000000     0          
T        Si     0.500000000000     0.551450000000     0.439400000000     0          
T        Si     0.625000000000     0.695050000000     0.663100000000     0          
T        Si     0.500000000000     0.573550000000     0.810600000000     0          
T        Si     0.500000000000     0.679950000000     0.163100000000     0          
T        Si     0.625000000000     0.551450000000     0.310600000000     0          
T        Si     0.573550000000     0.750000000000     0.189400000000     0          
T        Si     0.500000000000     0.804950000000     0.086900000000     0          
T        Si     0.625000000000     0.750000000000     0.250000000000     0          
T        Si     0.500000000000     0.948550000000     0.439400000000     0          
T        Si     0.695050000000     0.875000000000     0.336900000000     0          
T        Si     0.500000000000     0.750000000000     0.500000000000     0          
T        Si     0.551450000000     0.875000000000     0.689400000000     0          
T        Si     0.625000000000     0.820050000000     0.586900000000     0          
T        Si     0.500000000000     0.875000000000     0.750000000000     0          
T        Si     0.625000000000     0.926450000000     0.939400000000     0          
T        Si     0.679950000000     0.750000000000     0.836900000000     0          
T        Si     0.625000000000     0.875000000000     0.000000000000     0          
T        Si     0.573550000000     0.875000000000     0.060600000000     0          
T        Si     0.500000000000     0.820050000000     0.163100000000     0          
T        Si     0.625000000000     0.948550000000     0.310600000000     0          
T        Si     0.679950000000     0.875000000000     0.413100000000     0          
T        Si     0.551450000000     0.750000000000     0.560600000000     0          
T        Si     0.625000000000     0.804950000000     0.663100000000     0          
T        Si     0.500000000000     0.926450000000     0.810600000000     0          
T        Si     0.695050000000     0.750000000000     0.913100000000     0          
T        Si     0.676450000000     0.875000000000     0.060600000000     0          
T        Si     0.554950000000     0.750000000000     0.913100000000     0          
T        Si     0.698550000000     0.750000000000     0.560600000000     0          
T        Si     0.570050000000     0.875000000000     0.413100000000     0          
T        Si     0.676450000000     0.750000000000     0.189400000000     0          
T        Si     0.570050000000     0.750000000000     0.836900000000     0          
T        Si     0.698550000000     0.875000000000     0.689400000000     0          
T        Si     0.554950000000     0.875000000000     0.336900000000     0          
T        Si     0.625000000000     0.929950000000     0.586900000000     0          
T        Si     0.625000000000     0.823550000000     0.939400000000     0          
T        Si     0.500000000000     0.945050000000     0.086900000000     0          
T        Si     0.500000000000     0.801450000000     0.439400000000     0          
T        Si     0.625000000000     0.945050000000     0.663100000000     0          
T        Si     0.500000000000     0.823550000000     0.810600000000     0          
T        Si     0.500000000000     0.929950000000     0.163100000000     0          
T        Si     0.625000000000     0.801450000000     0.310600000000     0          
T        Si     0.823550000000     0.000000000000     0.189400000000     0          
T        Si     0.750000000000     0.054950000000     0.086900000000     0          
T        Si     0.875000000000     0.000000000000     0.250000000000     0          
T        Si     0.750000000000     0.198550000000     0.439400000000     0          
T        Si     0.945050000000     0.125000000000     0.336900000000     0          
T        Si     0.750000000000     0.000000000000     0.500000000000     0          
T        Si     0.801450000000     0.125000000000     0.689400000000     0          
T        Si     0.875000000000     0.070050000000     0.586900000000     0          
T        Si     0.750000000000     0.125000000000     0.750000000000     0          
T        Si     0.875000000000     0.176450000000     0.939400000000     0          
T        Si     0.929950000000     0.000000000000     0.836900000000     0          
T        Si     0.875000000000     0.125000000000     0.000000000000     0          
T        Si     0.823550000000     0.125000000000     0.060600000000     0          
T        Si     0.750000000000     0.070050000000     0.163100000000     0          
T        Si     0.875000000000     0.198550000000     0.310600000000     0          
T        Si     0.929950000000     0.125000000000     0.413100000000     0          
T        Si     0.801450000000     0.000000000000     0.560600000000     0          
T        Si     0.875000000000     0.054950000000     0.663100000000     0          
T        Si     0.750000000000     0.176450000000     0.810600000000     0          
T        Si     0.945050000000     0.000000000000     0.913100000000     0          
T        Si     0.926450000000     0.125000000000     0.060600000000     0          
T        Si     0.804950000000     0.000000000000     0.913100000000     0          
T        Si     0.948550000000     0.000000000000     0.560600000000     0          
T        Si     0.820050000000     0.125000000000     0.413100000000     0          
T        Si     0.926450000000     0.000000000000     0.189400000000     0          
T        Si     0.820050000000     0.000000000000     0.836900000000     0          
T        Si     0.948550000000     0.125000000000     0.689400000000     0          
T        Si     0.804950000000     0.125000000000     0.336900000000     0          
T        Si     0.875000000000     0.179950000000     0.586900000000     0          
T        Si     0.875000000000     0.073550000000     0.939400000000     0          
T        Si     0.750000000000     0.195050000000     0.086900000000     0          
T        Si     0.750000000000     0.051450000000     0.439400000000     0          
T        Si     0.875000000000     0.195050000000     0.663100000000     0          
T        Si     0.750000000000     0.073550000000     0.810600000000     0          
T        Si     0.750000000000     0.179950000000     0.163100000000     0          
T        Si     0.875000000000     0.051450000000     0.310600000000     0          
T        Si     0.823550000000     0.250000000000     0.189400000000     0          
T        Si     0.750000000000     0.304950000000     0.086900000000     0          
T        Si     0.875000000000     0.250000000000     0.250000000000     0          
T        Si     0.750000000000     0.448550000000     0.439400000000     0          
T        Si     0.945050000000     0.375000000000     0.336900000000     0          
T        Si     0.750000000000     0.250000000000     0.500000000000     0          
T        Si     0.801450000000     0.375000000000     0.689400000000     0          
T        Si     0.875000000000     0.320050000000     0.586900000000     0          
T        Si     0.750000000000     0.375000000000     0.750000000000     0          
T        Si     0.875000000000     0.426450000000     0.939400000000     0          
T        Si     0.929950000000     0.250000000000     0.836900000000     0          
T        Si     0.875000000000     0.375000000000     0.000000000000     0          
T        Si     0.823550000000     0.375000000000     0.060600000000     0          
T        Si     0.750000000000     0.320050000000     0.163100000000     0          
T        Si     0.875000000000     0.448550000000     0.310600000000     0          
T        Si     0.929950000000     0.375000000000     0.413100000000     0          
T        Si     0.801450000000     0.250000000000     0.560600000000     0          
T        Si     0.875000000000     0.304950000000     0.663100000000     0          
T        Si     0.750000000000     0.426450000000     0.810600000000     0          
T        Si     0.945050000000     0.250000000000     0.913100000000     0          
T        Si     0.926450000000     0.375000000000     0.060600000000     0          
T        Si     0.804950000000     0.250000000000     0.913100000000     0          
T        Si     0.948550000000     0.250000000000     0.560600000000     0          
T        Si     0.820050000000     0.375000000000     0.413100000000     0          
T        Si     0.926450000000     0.250000000000     0.189400000000     0          
T        Si     0.820050000000     0.250000000000     0.836900000000     0          
T        Si     0.948550000000     0.375000000000     0.689400000000     0          
T        Si     0.804950000000     0.375000000000     0.336900000000     0          
T        Si     0.875000000000     0.429950000000     0.586900000000     0          
T        Si     0.875000000000     0.323550000000     0.939400000000     0          
T        Si     0.750000000000     0.445050000000     0.086900000000     0          
T        Si     0.750000000000     0.301450000000     0.439400000000     0          
T        Si     0.875000000000     0.445050000000     0.663100000000     0          
T        Si     0.750000000000     0.323550000000     0.810600000000     0          
T        Si     0.750000000000     0.429950000000     0.163100000000     0          
T        Si     0.875000000000     0.301450000000     0.310600000000     0          
T        Si     0.823550000000     0.500000000000     0.189400000000     0          
T        Si     0.750000000000     0.554950000000     0.086900000000     0          
T        Si     0.875000000000     0.500000000000     0.250000000000     0          
T        Si     0.750000000000     0.698550000000     0.439400000000     0          
T        Si     0.945050000000     0.625000000000     0.336900000000     0          
T        Si     0.750000000000     0.500000000000     0.500000000000     0          
T        Si     0.801450000000     0.625000000000     0.689400000000     0          
T        Si     0.875000000000     0.570050000000     0.586900000000     0          
T        Si     0.750000000000     0.625000000000     0.750000000000     0          
T        Si     0.875000000000     0.676450000000     0.939400000000     0          
T        Si     0.929950000000     0.500000000000     0.836900000000     0          
T        Si     0.875000000000     0.625000000000     0.000000000000     0          
T        Si     0.823550000000     0.625000000000     0.060600000000     0          
T        Si     0.750000000000     0.570050000000     0.163100000000     0          
T        Si     0.875000000000     0.698550000000     0.310600000000     0          
T        Si     0.929950000000     0.625000000000     0.413100000000     0          
T        Si     0.801450000000     0.500000000000     0.560600000000     0          
T        Si     0.875000000000     0.554950000000     0.663100000000     0          
T        Si     0.750000000000     0.676450000000     0.810600000000     0          
T        Si     0.945050000000     0.500000000000     0.913100000000     0          
T        Si     0.926450000000     0.625000000000     0.060600000000     0          
T        Si     0.804950000000     0.500000000000     0.913100000000     0          
T        Si     0.948550000000     0.500000000000     0.560600000000     0          
T        Si     0.820050000000     0.625000000000     0.413100000000     0          
T        Si     0.926450000000     0.500000000000     0.189400000000     0          
T        Si     0.820050000000     0.500000000000     0.836900000000     0          
T        Si     0.948550000000     0.625000000000     0.689400000000     0          
T        Si     0.804950000000     0.625000000000     0.336900000000     0          
T        Si     0.875000000000     0.679950000000     0.586900000000     0          
T        Si     0.875000000000     0.573550000000     0.939400000000     0          
T        Si     0.750000000000     0.695050000000     0.086900000000     0          
T        Si     0.750000000000     0.551450000000     0.439400000000     0          
T        Si     0.875000000000     0.695050000000     0.663100000000     0          
T        Si     0.750000000000     0.573550000000     0.810600000000     0          
T        Si     0.750000000000     0.679950000000     0.163100000000     0          
T        Si     0.875000000000     0.551450000000     0.310600000000     0          
T        Si     0.823550000000     0.750000000000     0.189400000000     0          
T        Si     0.750000000000     0.804950000000     0.086900000000     0          
T        Si     0.875000000000     0.750000000000     0.250000000000     0          
T        Si     0.750000000000     0.948550000000     0.439400000000     0          
T        Si     0.945050000000     0.875000000000     0.336900000000     0          
T        Si     0.750000000000     0.750000000000     0.500000000000     0          
T        Si     0.801450000000     0.875000000000     0.689400000000     0          
T        Si     0.875000000000     0.820050000000     0.586900000000     0          
T        Si     0.750000000000     0.875000000000     0.750000000000     0          
T        Si     0.875000000000     0.926450000000     0.939400000000     0          
T        Si     0.929950000000     0.750000000000     0.836900000000     0          
T        Si     0.875000000000     0.875000000000     0.000000000000     0          
T        Si     0.823550000000     0.875000000000     0.060600000000     0          
T        Si     0.750000000000     0.820050000000     0.163100000000     0          
T        Si     0.875000000000     0.948550000000     0.310600000000     0          
T        Si     0.929950000000     0.875000000000     0.413100000000     0          
T        Si     0.801450000000     0.750000000000     0.560600000000     0          
T        Si     0.875000000000     0.804950000000     0.663100000000     0          
T        Si     0.750000000000     0.926450000000     0.810600000000     0          
T        Si     0.945050000000     0.750000000000     0.913100000000     0          
T        Si     0.926450000000     0.875000000000     0.060600000000     0          
T        Si     0.804950000000     0.750000000000     0.913100000000     0          
T        Si     0.948550000000     0.750000000000     0.560600000000     0          
T        Si     0.820050000000     0.875000000000     0.413100000000     0          
T        Si     0.926450000000     0.750000000000     0.189400000000     0          
T        Si     0.820050000000     0.750000000000     0.836900000000     0          
T        Si     0.948550000000     0.875000000000     0.689400000000     0          
T        Si     0.804950000000     0.875000000000     0.336900000000     0          
T        Si     0.875000000000     0.929950000000     0.586900000000     0          
T        Si     0.875000000000     0.823550000000     0.939400000000     0          
T        Si     0.750000000000     0.945050000000     0.086900000000     0          
T        Si     0.750000000000     0.801450000000     0.439400000000     0          
T        Si     0.875000000000     0.945050000000     0.663100000000     0          
T        Si     0.750000000000     0.823550000000     0.810600000000     0          
T        Si     0.750000000000     0.929950000000     0.163100000000     0          
T        Si     0.875000000000     0.801450000000     0.310600000000     0          
O        O      0.079100000000     0.000000000000     0.227700000000     0          
O        O      0.045850000000     0.203950000000     0.178200000000     0          
O        O      0.125000000000     0.000000000000     0.173600000000     0          
O        O      0.000000000000     0.000000000000     0.078800000000     0          
O        O      0.000000000000     0.062500000000     0.125000000000     0          
O        O      0.000000000000     0.204100000000     0.477700000000     0          
O        O      0.046050000000     0.170850000000     0.428200000000     0          
O        O      0.000000000000     0.000000000000     0.423600000000     0          
O        O      0.000000000000     0.125000000000     0.328800000000     0          
O        O      0.187500000000     0.125000000000     0.375000000000     0          
O        O      0.045900000000     0.125000000000     0.727700000000     0          
O        O      0.079150000000     0.171050000000     0.678200000000     0          
O        O      0.000000000000     0.125000000000     0.673600000000     0          
O        O      0.125000000000     0.125000000000     0.578800000000     0          
O        O      0.125000000000     0.062500000000     0.625000000000     0          
O        O      0.125000000000     0.170900000000     0.977700000000     0          
O        O      0.078950000000     0.204150000000     0.928200000000     0          
O        O      0.125000000000     0.125000000000     0.923600000000     0          
O        O      0.125000000000     0.000000000000     0.828800000000     0          
O        O      0.187500000000     0.000000000000     0.875000000000     0          
O        O      0.079100000000     0.125000000000     0.022300000000     0          
O        O      0.045850000000     0.171050000000     0.071800000000     0          
O        O      0.125000000000     0.125000000000     0.076400000000     0          
O        O      0.000000000000     0.125000000000     0.171200000000     0          
O        O      0.125000000000     0.204100000000     0.272300000000     0          
O        O      0.078950000000     0.170850000000     0.321800000000     0          
O        O      0.125000000000     0.000000000000     0.326400000000     0          
O        O      0.125000000000     0.125000000000     0.421200000000     0          
O        O      0.045900000000     0.000000000000     0.522300000000     0          
O        O      0.079150000000     0.203950000000     0.571800000000     0          
O        O      0.000000000000     0.000000000000     0.576400000000     0          
O        O      0.125000000000     0.000000000000     0.671200000000     0          
O        O      0.000000000000     0.170900000000     0.772300000000     0          
O        O      0.046050000000     0.204150000000     0.821800000000     0          
O        O      0.000000000000     0.125000000000     0.826400000000     0          
O        O      0.000000000000     0.000000000000     0.921200000000     0          
O        O      0.170900000000     0.125000000000     0.022300000000     0          
O        O      0.204150000000     0.171050000000     0.071800000000     0          
O        O      0.203950000000     0.204150000000     0.821800000000     0          
O        O      0.062500000000     0.000000000000     0.875000000000     0          
O        O      0.204100000000     0.000000000000     0.522300000000     0          
O        O      0.170850000000     0.203950000000     0.571800000000     0          
O        O      0.171050000000     0.170850000000     0.321800000000     0          
O        O      0.062500000000     0.125000000000     0.375000000000     0          
O        O      0.170900000000     0.000000000000     0.227700000000     0          
O        O      0.204150000000     0.203950000000     0.178200000000     0          
O        O      0.171050000000     0.204150000000     0.928200000000     0          
O        O      0.204100000000     0.125000000000     0.727700000000     0          
O        O      0.170850000000     0.171050000000     0.678200000000     0          
O        O      0.203950000000     0.170850000000     0.428200000000     0          
O        O      0.170850000000     0.078950000000     0.678200000000     0          
O        O      0.125000000000     0.187500000000     0.625000000000     0          
O        O      0.125000000000     0.079100000000     0.977700000000     0          
O        O      0.171050000000     0.045850000000     0.928200000000     0          
O        O      0.204150000000     0.046050000000     0.178200000000     0          
O        O      0.000000000000     0.187500000000     0.125000000000     0          
O        O      0.000000000000     0.045900000000     0.477700000000     0          
O        O      0.203950000000     0.079150000000     0.428200000000     0          
O        O      0.170850000000     0.046050000000     0.571800000000     0          
O        O      0.000000000000     0.079100000000     0.772300000000     0          
O        O      0.203950000000     0.045850000000     0.821800000000     0          
O        O      0.204150000000     0.078950000000     0.071800000000     0          
O        O      0.125000000000     0.045900000000     0.272300000000     0          
O        O      0.171050000000     0.079150000000     0.321800000000     0          
O        O      0.079150000000     0.046050000000     0.571800000000     0          
O        O      0.078950000000     0.079150000000     0.321800000000     0          
O        O      0.045850000000     0.078950000000     0.071800000000     0          
O        O      0.046050000000     0.045850000000     0.821800000000     0          
O        O      0.079150000000     0.078950000000     0.678200000000     0          
O        O      0.046050000000     0.079150000000     0.428200000000     0          
O        O      0.045850000000     0.046050000000     0.178200000000     0          
O        O      0.078950000000     0.045850000000     0.928200000000     0          
O        O      0.079100000000     0.250000000000     0.227700000000     0          
O        O      0.045850000000     0.453950000000     0.178200000000     0          
O        O      0.125000000000     0.250000000000     0.173600000000     0          
O        O      0.000000000000     0.250000000000     0.078800000000     0          
O        O      0.000000000000     0.312500000000     0.125000000000     0          
O        O      0.000000000000     0.454100000000     0.477700000000     0          
O        O      0.046050000000     0.420850000000     0.428200000000     0          
O        O      0.000000000000     0.250000000000     0.423600000000     0          
O        O      0.000000000000     0.375000000000     0.328800000000     0          
O        O      0.187500000000     0.375000000000     0.375000000000     0          
O        O      0.045900000000     0.375000000000     0.727700000000     0          
O        O      0.079150000000     0.421050000000     0.678200000000     0          
O        O      0.000000000000     0.375000000000     0.673600000000     0          
O        O      0.125000000000     0.375000000000     0.578800000000     0          
O        O      0.125000000000     0.312500000000     0.625000000000     0          
O        O      0.125000000000     0.420900000000     0.977700000000     0          
O        O      0.078950000000     0.454150000000     0.928200000000     0          
O        O      0.125000000000     0.375000000000     0.923600000000     0          
O        O      0.125000000000     0.250000000000     0.828800000000     0          
O        O      0.187500000000     0.250000000000     0.875000000000     0          
O        O      0.079100000000     0.375000000000     0.022300000000     0          
O        O      0.045850000000     0.421050000000     0.071800000000     0          
O        O      0.125000000000     0.375000000000     0.076400000000     0          
O        O      0.000000000000     0.375000000000     0.171200000000     0          
O        O      0.125000000000     0.454100000000     0.272300000000     0          
O        O      0.078950000000     0.420850000000     0.321800000000     0          
O        O      0.125000000000     0.250000000000     0.326400000000     0          
O        O      0.125000000000     0.375000000000     0.421200000000     0          
O        O      0.045900000000     0.250000000000     0.522300000000     0          
O        O      0.079150000000     0.453950000000     0.571800000000     0          
O        O      0.000000000000     0.250000000000     0.576400000000     0          
O        O      0.125000000000     0.250000000000     0.671200000000     0          
O        O      0.000000000000     0.420900000000     0.772300000000     0          
O        O      0.046050000000     0.454150000000     0.821800000000     0          
O        O      0.000000000000     0.375000000000     0.826400000000     0          
O        O      0.000000000000     0.250000000000     0.921200000000     0          
O        O      0.170900000000     0.375000000000     0.022300000000     0          
O        O      0.204150000000     0.421050000000     0.071800000000     0          
O        O      0.203950000000     0.454150000000     0.821800000000     0          
O        O      0.062500000000     0.250000000000     0.875000000000     0          
O        O      0.204100000000     0.250000000000     0.522300000000     0          
O        O      0.170850000000     0.453950000000     0.571800000000     0          
O        O      0.171050000000     0.420850000000     0.321800000000     0          
O        O      0.062500000000     0.375000000000     0.375000000000     0          
O        O      0.170900000000     0.250000000000     0.227700000000     0          
O        O      0.204150000000     0.453950000000     0.178200000000     0          
O        O      0.171050000000     0.454150000000     0.928200000000     0          
O        O      0.204100000000     0.375000000000     0.727700000000     0          
O        O      0.170850000000     0.421050000000     0.678200000000     0          
O        O      0.203950000000     0.420850000000     0.428200000000     0          
O        O      0.170850000000     0.328950000000     0.678200000000     0          
O        O      0.125000000000     0.437500000000     0.625000000000     0          
O        O      0.125000000000     0.329100000000     0.977700000000     0          
O        O      0.171050000000     0.295850000000     0.928200000000     0          
O        O      0.204150000000     0.296050000000     0.178200000000     0          
O        O      0.000000000000     0.437500000000     0.125000000000     0          
O        O      0.000000000000     0.295900000000     0.477700000000     0          
O        O      0.203950000000     0.329150000000     0.428200000000     0          
O        O      0.170850000000     0.296050000000     0.571800000000     0          
O        O      0.000000000000     0.329100000000     0.772300000000     0          
O        O      0.203950000000     0.295850000000     0.821800000000     0          
O        O      0.204150000000     0.328950000000     0.071800000000     0          
O        O      0.125000000000     0.295900000000     0.272300000000     0          
O        O      0.171050000000     0.329150000000     0.321800000000     0          
O        O      0.079150000000     0.296050000000     0.571800000000     0          
O        O      0.078950000000     0.329150000000     0.321800000000     0          
O        O      0.045850000000     0.328950000000     0.071800000000     0          
O        O      0.046050000000     0.295850000000     0.821800000000     0          
O        O      0.079150000000     0.328950000000     0.678200000000     0          
O        O      0.046050000000     0.329150000000     0.428200000000     0          
O        O      0.045850000000     0.296050000000     0.178200000000     0          
O        O      0.078950000000     0.295850000000     0.928200000000     0          
O        O      0.079100000000     0.500000000000     0.227700000000     0          
O        O      0.045850000000     0.703950000000     0.178200000000     0          
O        O      0.125000000000     0.500000000000     0.173600000000     0          
O        O      0.000000000000     0.500000000000     0.078800000000     0          
O        O      0.000000000000     0.562500000000     0.125000000000     0          
O        O      0.000000000000     0.704100000000     0.477700000000     0          
O        O      0.046050000000     0.670850000000     0.428200000000     0          
O        O      0.000000000000     0.500000000000     0.423600000000     0          
O        O      0.000000000000     0.625000000000     0.328800000000     0          
O        O      0.187500000000     0.625000000000     0.375000000000     0          
O        O      0.045900000000     0.625000000000     0.727700000000     0          
O        O      0.079150000000     0.671050000000     0.678200000000     0          
O        O      0.000000000000     0.625000000000     0.673600000000     0          
O        O      0.125000000000     0.625000000000     0.578800000000     0          
O        O      0.125000000000     0.562500000000     0.625000000000     0          
O        O      0.125000000000     0.670900000000     0.977700000000     0          
O        O      0.078950000000     0.704150000000     0.928200000000     0          
O        O      0.125000000000     0.625000000000     0.923600000000     0          
O        O      0.125000000000     0.500000000000     0.828800000000     0          
O        O      0.187500000000     0.500000000000     0.875000000000     0          
O        O      0.079100000000     0.625000000000     0.022300000000     0          
O        O      0.045850000000     0.671050000000     0.071800000000     0          
O        O      0.125000000000     0.625000000000     0.076400000000     0          
O        O      0.000000000000     0.625000000000     0.171200000000     0          
O        O      0.125000000000     0.704100000000     0.272300000000     0          
O        O      0.078950000000     0.670850000000     0.321800000000     0          
O        O      0.125000000000     0.500000000000     0.326400000000     0          
O        O      0.125000000000     0.625000000000     0.421200000000     0          
O        O      0.045900000000     0.500000000000     0.522300000000     0          
O        O      0.079150000000     0.703950000000     0.571800000000     0          
O        O      0.000000000000     0.500000000000     0.576400000000     0          
O        O      0.125000000000     0.500000000000     0.671200000000     0          
O        O      0.000000000000     0.670900000000     0.772300000000     0          
O        O      0.046050000000     0.704150000000     0.821800000000     0          
O        O      0.000000000000     0.625000000000     0.826400000000     0          
O        O      0.000000000000     0.500000000000     0.921200000000     0          
O        O      0.170900000000     0.625000000000     0.022300000000     0          
O        O      0.204150000000     0.671050000000     0.071800000000     0          
O        O      0.203950000000     0.704150000000     0.821800000000     0          
O        O      0.062500000000     0.500000000000     0.875000000000     0          
O        O      0.204100000000     0.500000000000     0.522300000000     0          
O        O      0.170850000000     0.703950000000     0.571800000000     0          
O        O      0.171050000000     0.670850000000     0.321800000000     0          
O        O      0.062500000000     0.625000000000     0.375000000000     0          
O        O      0.170900000000     0.500000000000     0.227700000000     0          
O        O      0.204150000000     0.703950000000     0.178200000000     0          
O        O      0.171050000000     0.704150000000     0.928200000000     0          
O        O      0.204100000000     0.625000000000     0.727700000000     0          
O        O      0.170850000000     0.671050000000     0.678200000000     0          
O        O      0.203950000000     0.670850000000     0.428200000000     0          
O        O      0.170850000000     0.578950000000     0.678200000000     0          
O        O      0.125000000000     0.687500000000     0.625000000000     0          
O        O      0.125000000000     0.579100000000     0.977700000000     0          
O        O      0.171050000000     0.545850000000     0.928200000000     0          
O        O      0.204150000000     0.546050000000     0.178200000000     0          
O        O      0.000000000000     0.687500000000     0.125000000000     0          
O        O      0.000000000000     0.545900000000     0.477700000000     0          
O        O      0.203950000000     0.579150000000     0.428200000000     0          
O        O      0.170850000000     0.546050000000     0.571800000000     0          
O        O      0.000000000000     0.579100000000     0.772300000000     0          
O        O      0.203950000000     0.545850000000     0.821800000000     0          
O        O      0.204150000000     0.578950000000     0.071800000000     0          
O        O      0.125000000000     0.545900000000     0.272300000000     0          
O        O      0.171050000000     0.579150000000     0.321800000000     0          
O        O      0.079150000000     0.546050000000     0.571800000000     0          
O        O      0.078950000000     0.579150000000     0.321800000000     0          
O        O      0.045850000000     0.578950000000     0.071800000000     0          
O        O      0.046050000000     0.545850000000     0.821800000000     0          
O        O      0.079150000000     0.578950000000     0.678200000000     0          
O        O      0.046050000000     0.579150000000     0.428200000000     0          
O        O      0.045850000000     0.546050000000     0.178200000000     0          
O        O      0.078950000000     0.545850000000     0.928200000000     0          
O        O      0.079100000000     0.750000000000     0.227700000000     0          
O        O      0.045850000000     0.953950000000     0.178200000000     0          
O        O      0.125000000000     0.750000000000     0.173600000000     0          
O        O      0.000000000000     0.750000000000     0.078800000000     0          
O        O      0.000000000000     0.812500000000     0.125000000000     0          
O        O      0.000000000000     0.954100000000     0.477700000000     0          
O        O      0.046050000000     0.920850000000     0.428200000000     0          
O        O      0.000000000000     0.750000000000     0.423600000000     0          
O        O      0.000000000000     0.875000000000     0.328800000000     0          
O        O      0.187500000000     0.875000000000     0.375000000000     0          
O        O      0.045900000000     0.875000000000     0.727700000000     0          
O        O      0.079150000000     0.921050000000     0.678200000000     0          
O        O      0.000000000000     0.875000000000     0.673600000000     0          
O        O      0.125000000000     0.875000000000     0.578800000000     0          
O        O      0.125000000000     0.812500000000     0.625000000000     0          
O        O      0.125000000000     0.920900000000     0.977700000000     0          
O        O      0.078950000000     0.954150000000     0.928200000000     0          
O        O      0.125000000000     0.875000000000     0.923600000000     0          
O        O      0.125000000000     0.750000000000     0.828800000000     0          
O        O      0.187500000000     0.750000000000     0.875000000000     0          
O        O      0.079100000000     0.875000000000     0.022300000000     0          
O        O      0.045850000000     0.921050000000     0.071800000000     0          
O        O      0.125000000000     0.875000000000     0.076400000000     0          
O        O      0.000000000000     0.875000000000     0.171200000000     0          
O        O      0.125000000000     0.954100000000     0.272300000000     0          
O        O      0.078950000000     0.920850000000     0.321800000000     0          
O        O      0.125000000000     0.750000000000     0.326400000000     0          
O        O      0.125000000000     0.875000000000     0.421200000000     0          
O        O      0.045900000000     0.750000000000     0.522300000000     0          
O        O      0.079150000000     0.953950000000     0.571800000000     0          
O        O      0.000000000000     0.750000000000     0.576400000000     0          
O        O      0.125000000000     0.750000000000     0.671200000000     0          
O        O      0.000000000000     0.920900000000     0.772300000000     0          
O        O      0.046050000000     0.954150000000     0.821800000000     0          
O        O      0.000000000000     0.875000000000     0.826400000000     0          
O        O      0.000000000000     0.750000000000     0.921200000000     0          
O        O      0.170900000000     0.875000000000     0.022300000000     0          
O        O      0.204150000000     0.921050000000     0.071800000000     0          
O        O      0.203950000000     0.954150000000     0.821800000000     0          
O        O      0.062500000000     0.750000000000     0.875000000000     0          
O        O      0.204100000000     0.750000000000     0.522300000000     0          
O        O      0.170850000000     0.953950000000     0.571800000000     0          
O        O      0.171050000000     0.920850000000     0.321800000000     0          
O        O      0.062500000000     0.875000000000     0.375000000000     0          
O        O      0.170900000000     0.750000000000     0.227700000000     0          
O        O      0.204150000000     0.953950000000     0.178200000000     0          
O        O      0.171050000000     0.954150000000     0.928200000000     0          
O        O      0.204100000000     0.875000000000     0.727700000000     0          
O        O      0.170850000000     0.921050000000     0.678200000000     0          
O        O      0.203950000000     0.920850000000     0.428200000000     0          
O        O      0.170850000000     0.828950000000     0.678200000000     0          
O        O      0.125000000000     0.937500000000     0.625000000000     0          
O        O      0.125000000000     0.829100000000     0.977700000000     0          
O        O      0.171050000000     0.795850000000     0.928200000000     0          
O        O      0.204150000000     0.796050000000     0.178200000000     0          
O        O      0.000000000000     0.937500000000     0.125000000000     0          
O        O      0.000000000000     0.795900000000     0.477700000000     0          
O        O      0.203950000000     0.829150000000     0.428200000000     0          
O        O      0.170850000000     0.796050000000     0.571800000000     0          
O        O      0.000000000000     0.829100000000     0.772300000000     0          
O        O      0.203950000000     0.795850000000     0.821800000000     0          
O        O      0.204150000000     0.828950000000     0.071800000000     0          
O        O      0.125000000000     0.795900000000     0.272300000000     0          
O        O      0.171050000000     0.829150000000     0.321800000000     0          
O        O      0.079150000000     0.796050000000     0.571800000000     0          
O        O      0.078950000000     0.829150000000     0.321800000000     0          
O        O      0.045850000000     0.828950000000     0.071800000000     0          
O        O      0.046050000000     0.795850000000     0.821800000000     0          
O        O      0.079150000000     0.828950000000     0.678200000000     0          
O        O      0.046050000000     0.829150000000     0.428200000000     0          
O        O      0.045850000000     0.796050000000     0.178200000000     0          
O        O      0.078950000000     0.795850000000     0.928200000000     0          
O        O      0.329100000000     0.000000000000     0.227700000000     0          
O        O      0.295850000000     0.203950000000     0.178200000000     0          
O        O      0.375000000000     0.000000000000     0.173600000000     0          
O        O      0.250000000000     0.000000000000     0.078800000000     0          
O        O      0.250000000000     0.062500000000     0.125000000000     0          
O        O      0.250000000000     0.204100000000     0.477700000000     0          
O        O      0.296050000000     0.170850000000     0.428200000000     0          
O        O      0.250000000000     0.000000000000     0.423600000000     0          
O        O      0.250000000000     0.125000000000     0.328800000000     0          
O        O      0.437500000000     0.125000000000     0.375000000000     0          
O        O      0.295900000000     0.125000000000     0.727700000000     0          
O        O      0.329150000000     0.171050000000     0.678200000000     0          
O        O      0.250000000000     0.125000000000     0.673600000000     0          
O        O      0.375000000000     0.125000000000     0.578800000000     0          
O        O      0.375000000000     0.062500000000     0.625000000000     0          
O        O      0.375000000000     0.170900000000     0.977700000000     0          
O        O      0.328950000000     0.204150000000     0.928200000000     0          
O        O      0.375000000000     0.125000000000     0.923600000000     0          
O        O      0.375000000000     0.000000000000     0.828800000000     0          
O        O      0.437500000000     0.000000000000     0.875000000000     0          
O        O      0.329100000000     0.125000000000     0.022300000000     0          
O        O      0.295850000000     0.171050000000     0.071800000000     0          
O        O      0.375000000000     0.125000000000     0.076400000000     0          
O        O      0.250000000000     0.125000000000     0.171200000000     0          
O        O      0.375000000000     0.204100000000     0.272300000000     0          
O        O      0.328950000000     0.170850000000     0.321800000000     0          
O        O      0.375000000000     0.000000000000     0.326400000000     0          
O        O      0.375000000000     0.125000000000     0.421200000000     0          
O        O      0.295900000000     0.000000000000     0.522300000000     0          
O        O      0.329150000000     0.203950000000     0.571800000000     0          
O        O      0.250000000000     0.000000000000     0.576400000000     0          
O        O      0.375000000000     0.000000000000     0.671200000000     0          
O        O      0.250000000000     0.170900000000     0.772300000000     0          
O        O      0.296050000000     0.204150000000     0.821800000000     0          
O        O      0.250000000000     0.125000000000     0.826400000000     0          
O        O      0.250000000000     0.000000000000     0.921200000000     0          
O        O      0.420900000000     0.125000000000     0.022300000000     0          
O        O      0.454150000000     0.171050000000     0.071800000000     0          
O        O      0.453950000000     0.204150000000     0.821800000000     0          
O        O      0.312500000000     0.000000000000     0.875000000000     0          
O        O      0.454100000000     0.000000000000     0.522300000000     0          
O        O      0.420850000000     0.203950000000     0.571800000000     0          
O        O      0.421050000000     0.170850000000     0.321800000000     0          
O        O      0.312500000000     0.125000000000     0.375000000000     0          
O        O      0.420900000000     0.000000000000     0.227700000000     0          
O        O      0.454150000000     0.203950000000     0.178200000000     0          
O        O      0.421050000000     0.204150000000     0.928200000000     0          
O        O      0.454100000000     0.125000000000     0.727700000000     0          
O        O      0.420850000000     0.171050000000     0.678200000000     0          
O        O      0.453950000000     0.170850000000     0.428200000000     0          
O        O      0.420850000000     0.078950000000     0.678200000000     0          
O        O      0.375000000000     0.187500000000     0.625000000000     0          
O        O      0.375000000000     0.079100000000     0.977700000000     0          
O        O      0.421050000000     0.045850000000     0.928200000000     0          
O        O      0.454150000000     0.046050000000     0.178200000000     0          
O        O      0.250000000000     0.187500000000     0.125000000000     0          
O        O      0.250000000000     0.045900000000     0.477700000000     0          
O        O      0.453950000000     0.079150000000     0.428200000000     0          
O        O      0.420850000000     0.046050000000     0.571800000000     0          
O        O      0.250000000000     0.079100000000     0.772300000000     0          
O        O      0.453950000000     0.045850000000     0.821800000000     0          
O        O      0.454150000000     0.078950000000     0.071800000000     0          
O        O      0.375000000000     0.045900000000     0.272300000000     0          
O        O      0.421050000000     0.079150000000     0.321800000000     0          
O        O      0.329150000000     0.046050000000     0.571800000000     0          
O        O      0.328950000000     0.079150000000     0.321800000000     0          
O        O      0.295850000000     0.078950000000     0.071800000000     0          
O        O      0.296050000000     0.045850000000     0.821800000000     0          
O        O      0.329150000000     0.078950000000     0.678200000000     0          
O        O      0.296050000000     0.079150000000     0.428200000000     0          
O        O      0.295850000000     0.046050000000     0.178200000000     0          
O        O      0.328950000000     0.045850000000     0.928200000000     0          
O        O      0.329100000000     0.250000000000     0.227700000000     0          
O        O      0.295850000000     0.453950000000     0.178200000000     0          
O        O      0.375000000000     0.250000000000     0.173600000000     0          
O        O      0.250000000000     0.250000000000     0.078800000000     0          
O        O      0.250000000000     0.312500000000     0.125000000000     0          
O        O      0.250000000000     0.454100000000     0.477700000000     0          
O        O      0.296050000000     0.420850000000     0.428200000000     0          
O        O      0.250000000000     0.250000000000     0.423600000000     0          
O        O      0.250000000000     0.375000000000     0.328800000000     0          
O        O      0.437500000000     0.375000000000     0.375000000000     0          
O        O      0.295900000000     0.375000000000     0.727700000000     0          
O        O      0.329150000000     0.421050000000     0.678200000000     0          
O        O      0.250000000000     0.375000000000     0.673600000000     0          
O        O      0.375000000000     0.375000000000     0.578800000000     0          
O        O      0.375000000000     0.312500000000     0.625000000000     0          
O        O      0.375000000000     0.420900000000     0.977700000000     0          
O        O      0.328950000000     0.454150000000     0.928200000000     0          
O        O      0.375000000000     0.375000000000     0.923600000000     0          
O        O      0.375000000000     0.250000000000     0.828800000000     0          
O        O      0.437500000000     0.250000000000     0.875000000000     0          
O        O      0.329100000000     0.375000000000     0.022300000000     0          
O        O      0.295850000000     0.421050000000     0.071800000000     0          
O        O      0.375000000000     0.375000000000     0.076400000000     0          
O        O      0.250000000000     0.375000000000     0.171200000000     0          
O        O      0.375000000000     0.454100000000     0.272300000000     0          
O        O      0.328950000000     0.420850000000     0.321800000000     0          
O        O      0.375000000000     0.250000000000     0.326400000000     0          
O        O      0.375000000000     0.375000000000     0.421200000000     0          
O        O      0.295900000000     0.250000000000     0.522300000000     0          
O        O      0.329150000000     0.453950000000     0.571800000000     0          
O        O      0.250000000000     0.250000000000     0.576400000000     0          
O        O      0.375000000000     0.250000000000     0.671200000000     0          
O        O      0.250000000000     0.420900000000     0.772300000000     0          
O        O      0.296050000000     0.454150000000     0.821800000000     0          
O        O      0.250000000000     0.375000000000     0.826400000000     0          
O        O      0.250000000000     0.250000000000     0.921200000000     0          
O        O      0.420900000000     0.375000000000     0.022300000000     0          
O        O      0.454150000000     0.421050000000     0.071800000000     0          
O        O      0.453950000000     0.454150000000     0.821800000000     0          
O        O      0.312500000000     0.250000000000     0.875000000000     0          
O        O      0.454100000000     0.250000000000     0.522300000000     0          
O        O      0.420850000000     0.453950000000     0.571800000000     0          
O        O      0.421050000000     0.420850000000     0.321800000000     0          
O        O      0.312500000000     0.375000000000     0.375000000000     0          
O        O      0.420900000000     0.250000000000     0.227700000000     0          
O        O      0.454150000000     0.453950000000     0.178200000000     0          
O        O      0.421050000000     0.454150000000     0.928200000000     0          
O        O      0.454100000000     0.375000000000     0.727700000000     0          
O        O      0.420850000000     0.421050000000     0.678200000000     0          
O        O      0.453950000000     0.420850000000     0.428200000000     0          
O        O      0.420850000000     0.328950000000     0.678200000000     0          
O        O      0.375000000000     0.437500000000     0.625000000000     0          
O        O      0.375000000000     0.329100000000     0.977700000000     0          
O        O      0.421050000000     0.295850000000     0.928200000000     0          
O        O      0.454150000000     0.296050000000     0.178200000000     0          
O        O      0.250000000000     0.437500000000     0.125000000000     0          
O        O      0.250000000000     0.295900000000     0.477700000000     0          
O        O      0.453950000000     0.329150000000     0.428200000000     0          
O        O      0.420850000000     0.296050000000     0.571800000000     0          
O        O      0.250000000000     0.329100000000     0.772300000000     0          
O        O      0.453950000000     0.295850000000     0.821800000000     0          
O        O      0.454150000000     0.328950000000     0.071800000000     0          
O        O      0.375000000000     0.295900000000     0.272300000000     0          
O        O      0.421050000000     0.329150000000     0.321800000000     0          
O        O      0.329150000000     0.296050000000     0.571800000000     0          
O        O      0.328950000000     0.329150000000     0.321800000000     0          
O        O      0.295850000000     0.328950000000     0.071800000000     0          
O        O      0.296050000000     0.295850000000     0.821800000000     0          
O        O      0.329150000000     0.328950000000     0.678200000000     0          
O        O      0.296050000000     0.329150000000     0.428200000000     0          
O        O      0.295850000000     0.296050000000     0.178200000000     0          
O        O      0.328950000000     0.295850000000     0.928200000000     0          
O        O      0.329100000000     0.500000000000     0.227700000000     0          
O        O      0.295850000000     0.703950000000     0.178200000000     0          
O        O      0.375000000000     0.500000000000     0.173600000000     0          
O        O      0.250000000000     0.500000000000     0.078800000000     0          
O        O      0.250000000000     0.562500000000     0.125000000000     0          
O        O      0.250000000000     0.704100000000     0.477700000000     0          
O        O      0.296050000000     0.670850000000     0.428200000000     0          
O        O      0.250000000000     0.500000000000     0.423600000000     0          
O        O      0.250000000000     0.625000000000     0.328800000000     0          
O        O      0.437500000000     0.625000000000     0.375000000000     0          
O        O      0.295900000000     0.625000000000     0.727700000000     0          
O        O      0.329150000000     0.671050000000     0.678200000000     0          
O        O      0.250000000000     0.625000000000     0.673600000000     0          
O        O      0.375000000000     0.625000000000     0.578800000000     0          
O        O      0.375000000000     0.562500000000     0.625000000000     0          
O        O      0.375000000000     0.670900000000     0.977700000000     0          
O        O      0.328950000000     0.704150000000     0.928200000000     0          
O        O      0.375000000000     0.625000000000     0.923600000000     0          
O        O      0.375000000000     0.500000000000     0.828800000000     0          
O        O      0.437500000000     0.500000000000     0.875000000000     0          
O        O      0.329100000000     0.625000000000     0.022300000000     0          
O        O      0.295850000000     0.671050000000     0.071800000000     0          
O        O      0.375000000000     0.625000000000     0.076400000000     0          
O        O      0.250000000000     0.625000000000     0.171200000000     0          
O        O      0.375000000000     0.704100000000     0.272300000000     0          
O        O      0.328950000000     0.670850000000     0.321800000000     0          
O        O      0.375000000000     0.500000000000     0.326400000000     0          
O        O      0.375000000000     0.625000000000     0.421200000000     0          
O        O      0.295900000000     0.500000000000     0.522300000000     0          
O        O      0.329150000000     0.703950000000     0.571800000000     0          
O        O      0.250000000000     0.500000000000     0.576400000000     0          
O        O      0.375000000000     0.500000000000     0.671200000000     0          
O        O      0.250000000000     0.670900000000     0.772300000000     0          
O        O      0.296050000000     0.704150000000     0.821800000000     0          
O        O      0.250000000000     0.625000000000     0.826400000000     0          
O        O      0.250000000000     0.500000000000     0.921200000000     0          
O        O      0.420900000000     0.625000000000     0.022300000000     0          
O        O      0.454150000000     0.671050000000     0.071800000000     0          
O        O      0.453950000000     0.704150000000     0.821800000000     0          
O        O      0.312500000000     0.500000000000     0.875000000000     0          
O        O      0.454100000000     0.500000000000     0.522300000000     0          
O        O      0.420850000000     0.703950000000     0.571800000000     0          
O        O      0.421050000000     0.670850000000     0.321800000000     0          
O        O      0.312500000000     0.625000000000     0.375000000000     0          
O        O      0.420900000000     0.500000000000     0.227700000000     0          
O        O      0.454150000000     0.703950000000     0.178200000000     0          
O        O      0.421050000000     0.704150000000     0.928200000000     0          
O        O      0.454100000000     0.625000000000     0.727700000000     0          
O        O      0.420850000000     0.671050000000     0.678200000000     0          
O        O      0.453950000000     0.670850000000     0.428200000000     0          
O        O      0.420850000000     0.578950000000     0.678200000000     0          
O        O      0.375000000000     0.687500000000     0.625000000000     0          
O        O      0.375000000000     0.579100000000     0.977700000000     0          
O        O      0.421050000000     0.545850000000     0.928200000000     0          
O        O      0.454150000000     0.546050000000     0.178200000000     0          
O        O      0.250000000000     0.687500000000     0.125000000000     0          
O        O      0.250000000000     0.545900000000     0.477700000000     0          
O        O      0.453950000000     0.579150000000     0.428200000000     0          
O        O      0.420850000000     0.546050000000     0.571800000000     0          
O        O      0.250000000000     0.579100000000     0.772300000000     0          
O        O      0.453950000000     0.545850000000     0.821800000000     0          
O        O      0.454150000000     0.578950000000     0.071800000000     0          
O        O      0.375000000000     0.545900000000     0.272300000000     0          
O        O      0.421050000000     0.579150000000     0.321800000000     0          
O        O      0.329150000000     0.546050000000     0.571800000000     0          
O        O      0.328950000000     0.579150000000     0.321800000000     0          
O        O      0.295850000000     0.578950000000     0.071800000000     0          
O        O      0.296050000000     0.545850000000     0.821800000000     0          
O        O      0.329150000000     0.578950000000     0.678200000000     0          
O        O      0.296050000000     0.579150000000     0.428200000000     0          
O        O      0.295850000000     0.546050000000     0.178200000000     0          
O        O      0.328950000000     0.545850000000     0.928200000000     0          
O        O      0.329100000000     0.750000000000     0.227700000000     0          
O        O      0.295850000000     0.953950000000     0.178200000000     0          
O        O      0.375000000000     0.750000000000     0.173600000000     0          
O        O      0.250000000000     0.750000000000     0.078800000000     0          
O        O      0.250000000000     0.812500000000     0.125000000000     0          
O        O      0.250000000000     0.954100000000     0.477700000000     0          
O        O      0.296050000000     0.920850000000     0.428200000000     0          
O        O      0.250000000000     0.750000000000     0.423600000000     0          
O        O      0.250000000000     0.875000000000     0.328800000000     0          
O        O      0.437500000000     0.875000000000     0.375000000000     0          
O        O      0.295900000000     0.875000000000     0.727700000000     0          
O        O      0.329150000000     0.921050000000     0.678200000000     0          
O        O      0.250000000000     0.875000000000     0.673600000000     0          
O        O      0.375000000000     0.875000000000     0.578800000000     0          
O        O      0.375000000000     0.812500000000     0.625000000000     0          
O        O      0.375000000000     0.920900000000     0.977700000000     0          
O        O      0.328950000000     0.954150000000     0.928200000000     0          
O        O      0.375000000000     0.875000000000     0.923600000000     0          
O        O      0.375000000000     0.750000000000     0.828800000000     0          
O        O      0.437500000000     0.750000000000     0.875000000000     0          
O        O      0.329100000000     0.875000000000     0.022300000000     0          
O        O      0.295850000000     0.921050000000     0.071800000000     0          
O        O      0.375000000000     0.875000000000     0.076400000000     0          
O        O      0.250000000000     0.875000000000     0.171200000000     0          
O        O      0.375000000000     0.954100000000     0.272300000000     0          
O        O      0.328950000000     0.920850000000     0.321800000000     0          
O        O      0.375000000000     0.750000000000     0.326400000000     0          
O        O      0.375000000000     0.875000000000     0.421200000000     0          
O        O      0.295900000000     0.750000000000     0.522300000000     0          
O        O      0.329150000000     0.953950000000     0.571800000000     0          
O        O      0.250000000000     0.750000000000     0.576400000000     0          
O        O      0.375000000000     0.750000000000     0.671200000000     0          
O        O      0.250000000000     0.920900000000     0.772300000000     0          
O        O      0.296050000000     0.954150000000     0.821800000000     0          
O        O      0.250000000000     0.875000000000     0.826400000000     0          
O        O      0.250000000000     0.750000000000     0.921200000000     0          
O        O      0.420900000000     0.875000000000     0.022300000000     0          
O        O      0.454150000000     0.921050000000     0.071800000000     0          
O        O      0.453950000000     0.954150000000     0.821800000000     0          
O        O      0.312500000000     0.750000000000     0.875000000000     0          
O        O      0.454100000000     0.750000000000     0.522300000000     0          
O        O      0.420850000000     0.953950000000     0.571800000000     0          
O        O      0.421050000000     0.920850000000     0.321800000000     0          
O        O      0.312500000000     0.875000000000     0.375000000000     0          
O        O      0.420900000000     0.750000000000     0.227700000000     0          
O        O      0.454150000000     0.953950000000     0.178200000000     0          
O        O      0.421050000000     0.954150000000     0.928200000000     0          
O        O      0.454100000000     0.875000000000     0.727700000000     0          
O        O      0.420850000000     0.921050000000     0.678200000000     0          
O        O      0.453950000000     0.920850000000     0.428200000000     0          
O        O      0.420850000000     0.828950000000     0.678200000000     0          
O        O      0.375000000000     0.937500000000     0.625000000000     0          
O        O      0.375000000000     0.829100000000     0.977700000000     0          
O        O      0.421050000000     0.795850000000     0.928200000000     0          
O        O      0.454150000000     0.796050000000     0.178200000000     0          
O        O      0.250000000000     0.937500000000     0.125000000000     0          
O        O      0.250000000000     0.795900000000     0.477700000000     0          
O        O      0.453950000000     0.829150000000     0.428200000000     0          
O        O      0.420850000000     0.796050000000     0.571800000000     0          
O        O      0.250000000000     0.829100000000     0.772300000000     0          
O        O      0.453950000000     0.795850000000     0.821800000000     0          
O        O      0.454150000000     0.828950000000     0.071800000000     0          
O        O      0.375000000000     0.795900000000     0.272300000000     0          
O        O      0.421050000000     0.829150000000     0.321800000000     0          
O        O      0.329150000000     0.796050000000     0.571800000000     0          
O        O      0.328950000000     0.829150000000     0.321800000000     0          
O        O      0.295850000000     0.828950000000     0.071800000000     0          
O        O      0.296050000000     0.795850000000     0.821800000000     0          
O        O      0.329150000000     0.828950000000     0.678200000000     0          
O        O      0.296050000000     0.829150000000     0.428200000000     0          
O        O      0.295850000000     0.796050000000     0.178200000000     0          
O        O      0.328950000000     0.795850000000     0.928200000000     0          
O        O      0.579100000000     0.000000000000     0.227700000000     0          
O        O      0.545850000000     0.203950000000     0.178200000000     0          
O        O      0.625000000000     0.000000000000     0.173600000000     0          
O        O      0.500000000000     0.000000000000     0.078800000000     0          
O        O      0.500000000000     0.062500000000     0.125000000000     0          
O        O      0.500000000000     0.204100000000     0.477700000000     0          
O        O      0.546050000000     0.170850000000     0.428200000000     0          
O        O      0.500000000000     0.000000000000     0.423600000000     0          
O        O      0.500000000000     0.125000000000     0.328800000000     0          
O        O      0.687500000000     0.125000000000     0.375000000000     0          
O        O      0.545900000000     0.125000000000     0.727700000000     0          
O        O      0.579150000000     0.171050000000     0.678200000000     0          
O        O      0.500000000000     0.125000000000     0.673600000000     0          
O        O      0.625000000000     0.125000000000     0.578800000000     0          
O        O      0.625000000000     0.062500000000     0.625000000000     0          
O        O      0.625000000000     0.170900000000     0.977700000000     0          
O        O      0.578950000000     0.204150000000     0.928200000000     0          
O        O      0.625000000000     0.125000000000     0.923600000000     0          
O        O      0.625000000000     0.000000000000     0.828800000000     0          
O        O      0.687500000000     0.000000000000     0.875000000000     0          
O        O      0.579100000000     0.125000000000     0.022300000000     0          
O        O      0.545850000000     0.171050000000     0.071800000000     0          
O        O      0.625000000000     0.125000000000     0.076400000000     0          
O        O      0.500000000000     0.125000000000     0.171200000000     0          
O        O      0.625000000000     0.204100000000     0.272300000000     0          
O        O      0.578950000000     0.170850000000     0.321800000000     0          
O        O      0.625000000000     0.000000000000     0.326400000000     0          
O        O      0.625000000000     0.125000000000     0.421200000000     0          
O        O      0.545900000000     0.000000000000     0.522300000000     0          
O        O      0.579150000000     0.203950000000     0.571800000000     0          
O        O      0.500000000000     0.000000000000     0.576400000000     0          
O        O      0.625000000000     0.000000000000     0.671200000000     0          
O        O      0.500000000000     0.170900000000     0.772300000000     0          
O        O      0.546050000000     0.204150000000     0.821800000000     0          
O        O      0.500000000000     0.125000000000     0.826400000000     0          
O        O      0.500000000000     0.000000000000     0.921200000000     0          
O        O      0.670900000000     0.125000000000     0.022300000000     0          
O        O      0.704150000000     0.171050000000     0.071800000000     0          
O        O      0.703950000000     0.204150000000     0.821800000000     0          
O        O      0.562500000000     0.000000000000     0.875000000000     0          
O        O      0.704100000000     0.000000000000     0.522300000000     0          
O        O      0.670850000000     0.203950000000     0.571800000000     0          
O        O      0.671050000000     0.170850000000     0.321800000000     0          
O        O      0.562500000000     0.125000000000     0.375000000000     0          
O        O      0.670900000000     0.000000000000     0.227700000000     0          
O        O      0.704150000000     0.203950000000     0.178200000000     0          
O        O      0.671050000000     0.204150000000     0.928200000000     0          
O        O      0.704100000000     0.125000000000     0.727700000000     0          
O        O      0.670850000000     0.171050000000     0.678200000000     0          
O        O      0.703950000000     0.170850000000     0.428200000000     0          
O        O      0.670850000000     0.078950000000     0.678200000000     0          
O        O      0.625000000000     0.187500000000     0.625000000000     0          
O        O      0.625000000000     0.079100000000     0.977700000000     0          
O        O      0.671050000000     0.045850000000     0.928200000000     0          
O        O      0.704150000000     0.046050000000     0.178200000000     0          
O        O      0.500000000000     0.187500000000     0.125000000000     0          
O        O      0.500000000000     0.045900000000     0.477700000000     0          
O        O      0.703950000000     0.079150000000     0.428200000000     0          
O        O      0.670850000000     0.046050000000     0.571800000000     0          
O        O      0.500000000000     0.079100000000     0.772300000000     0          
O        O      0.703950000000     0.045850000000     0.821800000000     0          
O        O      0.704150000000     0.078950000000     0.071800000000     0          
O        O      0.625000000000     0.045900000000     0.272300000000     0          
O        O      0.671050000000     0.079150000000     0.321800000000     0          
O        O      0.579150000000     0.046050000000     0.571800000000     0          
O        O      0.578950000000     0.079150000000     0.321800000000     0          
O        O      0.545850000000     0.078950000000     0.071800000000     0          
O        O      0.546050000000     0.045850000000     0.821800000000     0          
O        O      0.579150000000     0.078950000000     0.678200000000     0          
O        O      0.546050000000     0.079150000000     0.428200000000     0          
O        O      0.545850000000     0.046050000000     0.178200000000     0          
O        O      0.578950000000     0.045850000000     0.928200000000     0          
O        O      0.579100000000     0.250000000000     0.227700000000     0          
O        O      0.545850000000     0.453950000000     0.178200000000     0          
O        O      0.625000000000     0.250000000000     0.173600000000     0          
O        O      0.500000000000     0.250000000000     0.078800000000     0          
O        O      0.500000000000     0.312500000000     0.125000000000     0          
O        O      0.500000000000     0.454100000000     0.477700000000     0          
O        O      0.546050000000     0.420850000000     0.428200000000     0          
O        O      0.500000000000     0.250000000000     0.423600000000     0          
O        O      0.500000000000     0.375000000000     0.328800000000     0          
O        O      0.687500000000     0.375000000000     0.375000000000     0          
O        O      0.545900000000     0.375000000000     0.727700000000     0          
O        O      0.579150000000     0.421050000000     0.678200000000     0          
O        O      0.500000000000     0.375000000000     0.673600000000     0          
O        O      0.625000000000     0.375000000000     0.578800000000     0          
O        O      0.625000000000     0.312500000000     0.625000000000     0          
O        O      0.625000000000     0.420900000000     0.977700000000     0          
O        O      0.578950000000     0.454150000000     0.928200000000     0          
O        O      0.625000000000     0.375000000000     0.923600000000     0          
O        O      0.625000000000     0.250000000000     0.828800000000     0          
O        O      0.687500000000     0.250000000000     0.875000000000     0          
O        O      0.579100000000     0.375000000000     0.022300000000     0          
O        O      0.545850000000     0.421050000000     0.071800000000     0          
O        O      0.625000000000     0.375000000000     0.076400000000     0          
O        O      0.500000000000     0.375000000000     0.171200000000     0          
O        O      0.625000000000     0.454100000000     0.272300000000     0          
O        O      0.578950000000     0.420850000000     0.321800000000     0          
O        O      0.625000000000     0.250000000000     0.326400000000     0          
O        O      0.625000000000     0.375000000000     0.421200000000     0          
O        O      0.545900000000     0.250000000000     0.522300000000     0          
O        O      0.579150000000     0.453950000000     0.571800000000     0          
O        O      0.500000000000     0.250000000000     0.576400000000     0          
O        O      0.625000000000     0.250000000000     0.671200000000     0          
O        O      0.500000000000     0.420900000000     0.772300000000     0          
O        O      0.546050000000     0.454150000000     0.821800000000     0          
O        O      0.500000000000     0.375000000000     0.826400000000     0          
O        O      0.500000000000     0.250000000000     0.921200000000     0          
O        O      0.670900000000     0.375000000000     0.022300000000     0          
O        O      0.704150000000     0.421050000000     0.071800000000     0          
O        O      0.703950000000     0.454150000000     0.821800000000     0          
O        O      0.562500000000     0.250000000000     0.875000000000     0          
O        O      0.704100000000     0.250000000000     0.522300000000     0          
O        O      0.670850000000     0.453950000000     0.571800000000     0          
O        O      0.671050000000     0.420850000000     0.321800000000     0          
O        O      0.562500000000     0.375000000000     0.375000000000     0          
O        O      0.670900000000     0.250000000000     0.227700000000     0          
O        O      0.704150000000     0.453950000000     0.178200000000     0          
O        O      0.671050000000     0.454150000000     0.928200000000     0          
O        O      0.704100000000     0.375000000000     0.727700000000     0          
O        O      0.670850000000     0.421050000000     0.678200000000     0          
O        O      0.703950000000     0.420850000000     0.428200000000     0          
O        O      0.670850000000     0.328950000000     0.678200000000     0          
O        O      0.625000000000     0.437500000000     0.625000000000     0          
O        O      0.625000000000     0.329100000000     0.977700000000     0          
O        O      0.671050000000     0.295850000000     0.928200000000     0          
O        O      0.704150000000     0.296050000000     0.178200000000     0          
O        O      0.500000000000     0.437500000000     0.125000000000     0          
O        O      0.500000000000     0.295900000000     0.477700000000     0          
O        O      0.703950000000     0.329150000000     0.428200000000     0          
O        O      0.670850000000     0.296050000000     0.571800000000     0          
O        O      0.500000000000     0.329100000000     0.772300000000     0          
O        O      0.703950000000     0.295850000000     0.821800000000     0          
O        O      0.704150000000     0.328950000000     0.071800000000     0          
O        O      0.625000000000     0.295900000000     0.272300000000     0          
O        O      0.671050000000     0.329150000000     0.321800000000     0          
O        O      0.579150000000     0.296050000000     0.571800000000     0          
O        O      0.578950000000     0.329150000000     0.321800000000     0          
O        O      0.545850000000     0.328950000000     0.071800000000     0          
O        O      0.546050000000     0.295850000000     0.821800000000     0          
O        O      0.579150000000     0.328950000000     0.678200000000     0          
O        O      0.546050000000     0.329150000000     0.428200000000     0          
O        O      0.545850000000     0.296050000000     0.178200000000     0          
O        O      0.578950000000     0.295850000000     0.928200000000     0          
O        O      0.579100000000     0.500000000000     0.227700000000     0          
O        O      0.545850000000     0.703950000000     0.178200000000     0          
O        O      0.625000000000     0.500000000000     0.173600000000     0          
O        O      0.500000000000     0.500000000000     0.078800000000     0          
O        O      0.500000000000     0.562500000000     0.125000000000     0          
O        O      0.500000000000     0.704100000000     0.477700000000     0          
O        O      0.546050000000     0.670850000000     0.428200000000     0          
O        O      0.500000000000     0.500000000000     0.423600000000     0          
O        O      0.500000000000     0.625000000000     0.328800000000     0          
O        O      0.687500000000     0.625000000000     0.375000000000     0          
O        O      0.545900000000     0.625000000000     0.727700000000     0          
O        O      0.579150000000     0.671050000000     0.678200000000     0          
O        O      0.500000000000     0.625000000000     0.673600000000     0          
O        O      0.625000000000     0.625000000000     0.578800000000     0          
O        O      0.625000000000     0.562500000000     0.625000000000     0          
O        O      0.625000000000     0.670900000000     0.977700000000     0          
O        O      0.578950000000     0.704150000000     0.928200000000     0          
O        O      0.625000000000     0.625000000000     0.923600000000     0          
O        O      0.625000000000     0.500000000000     0.828800000000     0          
O        O      0.687500000000     0.500000000000     0.875000000000     0          
O        O      0.579100000000     0.625000000000     0.022300000000     0          
O        O      0.545850000000     0.671050000000     0.071800000000     0          
O        O      0.625000000000     0.625000000000     0.076400000000     0          
O        O      0.500000000000     0.625000000000     0.171200000000     0          
O        O      0.625000000000     0.704100000000     0.272300000000     0          
O        O      0.578950000000     0.670850000000     0.321800000000     0          
O        O      0.625000000000     0.500000000000     0.326400000000     0          
O        O      0.625000000000     0.625000000000     0.421200000000     0          
O        O      0.545900000000     0.500000000000     0.522300000000     0          
O        O      0.579150000000     0.703950000000     0.571800000000     0          
O        O      0.500000000000     0.500000000000     0.576400000000     0          
O        O      0.625000000000     0.500000000000     0.671200000000     0          
O        O      0.500000000000     0.670900000000     0.772300000000     0          
O        O      0.546050000000     0.704150000000     0.821800000000     0          
O        O      0.500000000000     0.625000000000     0.826400000000     0          
O        O      0.500000000000     0.500000000000     0.921200000000     0          
O        O      0.670900000000     0.625000000000     0.022300000000     0          
O        O      0.704150000000     0.671050000000     0.071800000000     0          
O        O      0.703950000000     0.704150000000     0.821800000000     0          
O        O      0.562500000000     0.500000000000     0.875000000000     0          
O        O      0.704100000000     0.500000000000     0.522300000000     0          
O        O      0.670850000000     0.703950000000     0.571800000000     0          
O        O      0.671050000000     0.670850000000     0.321800000000     0          
O        O      0.562500000000     0.625000000000     0.375000000000     0          
O        O      0.670900000000     0.500000000000     0.227700000000     0          
O        O      0.704150000000     0.703950000000     0.178200000000     0          
O        O      0.671050000000     0.704150000000     0.928200000000     0          
O        O      0.704100000000     0.625000000000     0.727700000000     0          
O        O      0.670850000000     0.671050000000     0.678200000000     0          
O        O      0.703950000000     0.670850000000     0.428200000000     0          
O        O      0.670850000000     0.578950000000     0.678200000000     0          
O        O      0.625000000000     0.687500000000     0.625000000000     0          
O        O      0.625000000000     0.579100000000     0.977700000000     0          
O        O      0.671050000000     0.545850000000     0.928200000000     0          
O        O      0.704150000000     0.546050000000     0.178200000000     0          
O        O      0.500000000000     0.687500000000     0.125000000000     0          
O        O      0.500000000000     0.545900000000     0.477700000000     0          
O        O      0.703950000000     0.579150000000     0.428200000000     0          
O        O      0.670850000000     0.546050000000     0.571800000000     0          
O        O      0.500000000000     0.579100000000     0.772300000000     0          
O        O      0.703950000000     0.545850000000     0.821800000000     0          
O        O      0.704150000000     0.578950000000     0.071800000000     0          
O        O      0.625000000000     0.545900000000     0.272300000000     0          
O        O      0.671050000000     0.579150000000     0.321800000000     0          
O        O      0.579150000000     0.546050000000     0.571800000000     0          
O        O      0.578950000000     0.579150000000     0.321800000000     0          
O        O      0.545850000000     0.578950000000     0.071800000000     0          
O        O      0.546050000000     0.545850000000     0.821800000000     0          
O        O      0.579150000000     0.578950000000     0.678200000000     0          
O        O      0.546050000000     0.579150000000     0.428200000000     0          
O        O      0.545850000000     0.546050000000     0.178200000000     0          
O        O      0.578950000000     0.545850000000     0.928200000000     0          
O        O      0.579100000000     0.750000000000     0.227700000000     0          
O        O      0.545850000000     0.953950000000     0.178200000000     0          
O        O      0.625000000000     0.750000000000     0.173600000000     0          
O        O      0.500000000000     0.750000000000     0.078800000000     0          
O        O      0.500000000000     0.812500000000     0.125000000000     0          
O        O      0.500000000000     0.954100000000     0.477700000000     0          
O        O      0.546050000000     0.920850000000     0.428200000000     0          
O        O      0.500000000000     0.750000000000     0.423600000000     0          
O        O      0.500000000000     0.875000000000     0.328800000000     0          
O        O      0.687500000000     0.875000000000     0.375000000000     0          
O        O      0.545900000000     0.875000000000     0.727700000000     0          
O        O      0.579150000000     0.921050000000     0.678200000000     0          
O        O      0.500000000000     0.875000000000     0.673600000000     0          
O        O      0.625000000000     0.875000000000     0.578800000000     0          
O        O      0.625000000000     0.812500000000     0.625000000000     0          
O        O      0.625000000000     0.920900000000     0.977700000000     0          
O        O      0.578950000000     0.954150000000     0.928200000000     0          
O        O      0.625000000000     0.875000000000     0.923600000000     0          
O        O      0.625000000000     0.750000000000     0.828800000000     0          
O        O      0.687500000000     0.750000000000     0.875000000000     0          
O        O      0.579100000000     0.875000000000     0.022300000000     0          
O        O      0.545850000000     0.921050000000     0.071800000000     0          
O        O      0.625000000000     0.875000000000     0.076400000000     0          
O        O      0.500000000000     0.875000000000     0.171200000000     0          
O        O      0.625000000000     0.954100000000     0.272300000000     0          
O        O      0.578950000000     0.920850000000     0.321800000000     0          
O        O      0.625000000000     0.750000000000     0.326400000000     0          
O        O      0.625000000000     0.875000000000     0.421200000000     0          
O        O      0.545900000000     0.750000000000     0.522300000000     0          
O        O      0.579150000000     0.953950000000     0.571800000000     0          
O        O      0.500000000000     0.750000000000     0.576400000000     0          
O        O      0.625000000000     0.750000000000     0.671200000000     0          
O        O      0.500000000000     0.920900000000     0.772300000000     0          
O        O      0.546050000000     0.954150000000     0.821800000000     0          
O        O      0.500000000000     0.875000000000     0.826400000000     0          
O        O      0.500000000000     0.750000000000     0.921200000000     0          
O        O      0.670900000000     0.875000000000     0.022300000000     0          
O        O      0.704150000000     0.921050000000     0.071800000000     0          
O        O      0.703950000000     0.954150000000     0.821800000000     0          
O        O      0.562500000000     0.750000000000     0.875000000000     0          
O        O      0.704100000000     0.750000000000     0.522300000000     0          
O        O      0.670850000000     0.953950000000     0.571800000000     0          
O        O      0.671050000000     0.920850000000     0.321800000000     0          
O        O      0.562500000000     0.875000000000     0.375000000000     0          
O        O      0.670900000000     0.750000000000     0.227700000000     0          
O        O      0.704150000000     0.953950000000     0.178200000000     0          
O        O      0.671050000000     0.954150000000     0.928200000000     0          
O        O      0.704100000000     0.875000000000     0.727700000000     0          
O        O      0.670850000000     0.921050000000     0.678200000000     0          
O        O      0.703950000000     0.920850000000     0.428200000000     0          
O        O      0.670850000000     0.828950000000     0.678200000000     0          
O        O      0.625000000000     0.937500000000     0.625000000000     0          
O        O      0.625000000000     0.829100000000     0.977700000000     0          
O        O      0.671050000000     0.795850000000     0.928200000000     0          
O        O      0.704150000000     0.796050000000     0.178200000000     0          
O        O      0.500000000000     0.937500000000     0.125000000000     0          
O        O      0.500000000000     0.795900000000     0.477700000000     0          
O        O      0.703950000000     0.829150000000     0.428200000000     0          
O        O      0.670850000000     0.796050000000     0.571800000000     0          
O        O      0.500000000000     0.829100000000     0.772300000000     0          
O        O      0.703950000000     0.795850000000     0.821800000000     0          
O        O      0.704150000000     0.828950000000     0.071800000000     0          
O        O      0.625000000000     0.795900000000     0.272300000000     0          
O        O      0.671050000000     0.829150000000     0.321800000000     0          
O        O      0.579150000000     0.796050000000     0.571800000000     0          
O        O      0.578950000000     0.829150000000     0.321800000000     0          
O        O      0.545850000000     0.828950000000     0.071800000000     0          
O        O      0.546050000000     0.795850000000     0.821800000000     0          
O        O      0.579150000000     0.828950000000     0.678200000000     0          
O        O      0.546050000000     0.829150000000     0.428200000000     0          
O        O      0.545850000000     0.796050000000     0.178200000000     0          
O        O      0.578950000000     0.795850000000     0.928200000000     0          
O        O      0.829100000000     0.000000000000     0.227700000000     0          
O        O      0.795850000000     0.203950000000     0.178200000000     0          
O        O      0.875000000000     0.000000000000     0.173600000000     0          
O        O      0.750000000000     0.000000000000     0.078800000000     0          
O        O      0.750000000000     0.062500000000     0.125000000000     0          
O        O      0.750000000000     0.204100000000     0.477700000000     0          
O        O      0.796050000000     0.170850000000     0.428200000000     0          
O        O      0.750000000000     0.000000000000     0.423600000000     0          
O        O      0.750000000000     0.125000000000     0.328800000000     0          
O        O      0.937500000000     0.125000000000     0.375000000000     0          
O        O      0.795900000000     0.125000000000     0.727700000000     0          
O        O      0.829150000000     0.171050000000     0.678200000000     0          
O        O      0.750000000000     0.125000000000     0.673600000000     0          
O        O      0.875000000000     0.125000000000     0.578800000000     0          
O        O      0.875000000000     0.062500000000     0.625000000000     0          
O        O      0.875000000000     0.170900000000     0.977700000000     0          
O        O      0.828950000000     0.204150000000     0.928200000000     0          
O        O      0.875000000000     0.125000000000     0.923600000000     0          
O        O      0.875000000000     0.000000000000     0.828800000000     0          
O        O      0.937500000000     0.000000000000     0.875000000000     0          
O        O      0.829100000000     0.125000000000     0.022300000000     0          
O        O      0.795850000000     0.171050000000     0.071800000000     0          
O        O      0.875000000000     0.125000000000     0.076400000000     0          
O        O      0.750000000000     0.125000000000     0.171200000000     0          
O        O      0.875000000000     0.204100000000     0.272300000000     0          
O        O      0.828950000000     0.170850000000     0.321800000000     0          
O        O      0.875000000000     0.000000000000     0.326400000000     0          
O        O      0.875000000000     0.125000000000     0.421200000000     0          
O        O      0.795900000000     0.000000000000     0.522300000000     0          
O        O      0.829150000000     0.203950000000     0.571800000000     0          
O        O      0.750000000000     0.000000000000     0.576400000000     0          
O        O      0.875000000000     0.000000000000     0.671200000000     0          
O        O      0.750000000000     0.170900000000     0.772300000000     0          
O        O      0.796050000000     0.204150000000     0.821800000000     0          
O        O      0.750000000000     0.125000000000     0.826400000000     0          
O        O      0.750000000000     0.000000000000     0.921200000000     0          
O        O      0.920900000000     0.125000000000     0.022300000000     0          
O        O      0.954150000000     0.171050000000     0.071800000000     0          
O        O      0.953950000000     0.204150000000     0.821800000000     0          
O        O      0.812500000000     0.000000000000     0.875000000000     0          
O        O      0.954100000000     0.000000000000     0.522300000000     0          
O        O      0.920850000000     0.203950000000     0.571800000000     0          
O        O      0.921050000000     0.170850000000     0.321800000000     0          
O        O      0.812500000000     0.125000000000     0.375000000000     0          
O        O      0.920900000000     0.000000000000     0.227700000000     0          
O        O      0.954150000000     0.203950000000     0.178200000000     0          
O        O      0.921050000000     0.204150000000     0.928200000000     0          
O        O      0.954100000000     0.125000000000     0.727700000000     0          
O        O      0.920850000000     0.171050000000     0.678200000000     0          
O        O      0.953950000000     0.170850000000     0.428200000000     0          
O        O      0.920850000000     0.078950000000     0.678200000000     0          
O        O      0.875000000000     0.187500000000     0.625000000000     0          
O        O      0.875000000000     0.079100000000     0.977700000000     0          
O        O      0.921050000000     0.045850000000     0.928200000000     0          
O        O      0.954150000000     0.046050000000     0.178200000000     0          
O        O      0.750000000000     0.187500000000     0.125000000000     0          
O        O      0.750000000000     0.045900000000     0.477700000000     0          
O        O      0.953950000000     0.079150000000     0.428200000000     0          
O        O      0.920850000000     0.046050000000     0.571800000000     0          
O        O      0.750000000000     0.079100000000     0.772300000000     0          
O        O      0.953950000000     0.045850000000     0.821800000000     0          
O        O      0.954150000000     0.078950000000     0.071800000000     0          
O        O      0.875000000000     0.045900000000     0.272300000000     0          
O        O      0.921050000000     0.079150000000     0.321800000000     0          
O        O      0.829150000000     0.046050000000     0.571800000000     0          
O        O      0.828950000000     0.079150000000     0.321800000000     0          
O        O      0.795850000000     0.078950000000     0.071800000000     0          
O        O      0.796050000000     0.045850000000     0.821800000000     0          
O        O      0.829150000000     0.078950000000     0.678200000000     0          
O        O      0.796050000000     0.079150000000     0.428200000000     0          
O        O      0.795850000000     0.046050000000     0.178200000000     0          
O        O      0.828950000000     0.045850000000     0.928200000000     0          
O        O      0.829100000000     0.250000000000     0.227700000000     0          
O        O      0.795850000000     0.453950000000     0.178200000000     0          
O        O      0.875000000000     0.250000000000     0.173600000000     0          
O        O      0.750000000000     0.250000000000     0.078800000000     0          
O        O      0.750000000000     0.312500000000     0.125000000000     0          
O        O      0.750000000000     0.454100000000     0.477700000000     0          
O        O      0.796050000000     0.420850000000     0.428200000000     0          
O        O      0.750000000000     0.250000000000     0.423600000000     0          
O        O      0.750000000000     0.375000000000     0.328800000000     0          
O        O      0.937500000000     0.375000000000     0.375000000000     0          
O        O      0.795900000000     0.375000000000     0.727700000000     0          
O        O      0.829150000000     0.421050000000     0.678200000000     0          
O        O      0.750000000000     0.375000000000     0.673600000000     0          
O        O      0.875000000000     0.375000000000     0.578800000000     0          
O        O      0.875000000000     0.312500000000     0.625000000000     0          
O        O      0.875000000000     0.420900000000     0.977700000000     0          
O        O      0.828950000000     0.454150000000     0.928200000000     0          
O        O      0.875000000000     0.375000000000     0.923600000000     0          
O        O      0.875000000000     0.250000000000     0.828800000000     0          
O        O      0.937500000000     0.250000000000     0.875000000000     0          
O        O      0.829100000000     0.375000000000     0.022300000000     0          
O        O      0.795850000000     0.421050000000     0.071800000000     0          
O        O      0.875000000000     0.375000000000     0.076400000000     0          
O        O      0.750000000000     0.375000000000     0.171200000000     0          
O        O      0.875000000000     0.454100000000     0.272300000000     0          
O        O      0.828950000000     0.420850000000     0.321800000000     0          
O        O      0.875000000000     0.250000000000     0.326400000000     0          
O        O      0.875000000000     0.375000000000     0.421200000000     0          
O        O      0.795900000000     0.250000000000     0.522300000000     0          
O        O      0.829150000000     0.453950000000     0.571800000000     0          
O        O      0.750000000000     0.250000000000     0.576400000000     0          
O        O      0.875000000000     0.250000000000     0.671200000000     0          
O        O      0.750000000000     0.420900000000     0.772300000000     0          
O        O      0.796050000000     0.454150000000     0.821800000000     0          
O        O      0.750000000000     0.375000000000     0.826400000000     0          
O        O      0.750000000000     0.250000000000     0.921200000000     0          
O        O      0.920900000000     0.375000000000     0.022300000000     0          
O        O      0.954150000000     0.421050000000     0.071800000000     0          
O        O      0.953950000000     0.454150000000     0.821800000000     0          
O        O      0.812500000000     0.250000000000     0.875000000000     0          
O        O      0.954100000000     0.250000000000     0.522300000000     0          
O        O      0.920850000000     0.453950000000     0.571800000000     0          
O        O      0.921050000000     0.420850000000     0.321800000000     0          
O        O      0.812500000000     0.375000000000     0.375000000000     0          
O        O      0.920900000000     0.250000000000     0.227700000000     0          
O        O      0.954150000000     0.453950000000     0.178200000000     0          
O        O      0.921050000000     0.454150000000     0.928200000000     0          
O        O      0.954100000000     0.375000000000     0.727700000000     0          
O        O      0.920850000000     0.421050000000     0.678200000000     0          
O        O      0.953950000000     0.420850000000     0.428200000000     0          
O        O      0.920850000000     0.328950000000     0.678200000000     0          
O        O      0.875000000000     0.437500000000     0.625000000000     0          
O        O      0.875000000000     0.329100000000     0.977700000000     0          
O        O      0.921050000000     0.295850000000     0.928200000000     0          
O        O      0.954150000000     0.296050000000     0.178200000000     0          
O        O      0.750000000000     0.437500000000     0.125000000000     0          
O        O      0.750000000000     0.295900000000     0.477700000000     0          
O        O      0.953950000000     0.329150000000     0.428200000000     0          
O        O      0.920850000000     0.296050000000     0.571800000000     0          
O        O      0.750000000000     0.329100000000     0.772300000000     0          
O        O      0.953950000000     0.295850000000     0.821800000000     0          
O        O      0.954150000000     0.328950000000     0.071800000000     0          
O        O      0.875000000000     0.295900000000     0.272300000000     0          
O        O      0.921050000000     0.329150000000     0.321800000000     0          
O        O      0.829150000000     0.296050000000     0.571800000000     0          
O        O      0.828950000000     0.329150000000     0.321800000000     0          
O        O      0.795850000000     0.328950000000     0.071800000000     0          
O        O      0.796050000000     0.295850000000     0.821800000000     0          
O        O      0.829150000000     0.328950000000     0.678200000000     0          
O        O      0.796050000000     0.329150000000     0.428200000000     0          
O        O      0.795850000000     0.296050000000     0.178200000000     0          
O        O      0.828950000000     0.295850000000     0.928200000000     0          
O        O      0.829100000000     0.500000000000     0.227700000000     0          
O        O      0.795850000000     0.703950000000     0.178200000000     0          
O        O      0.875000000000     0.500000000000     0.173600000000     0          
O        O      0.750000000000     0.500000000000     0.078800000000     0          
O        O      0.750000000000     0.562500000000     0.125000000000     0          
O        O      0.750000000000     0.704100000000     0.477700000000     0          
O        O      0.796050000000     0.670850000000     0.428200000000     0          
O        O      0.750000000000     0.500000000000     0.423600000000     0          
O        O      0.750000000000     0.625000000000     0.328800000000     0          
O        O      0.937500000000     0.625000000000     0.375000000000     0          
O        O      0.795900000000     0.625000000000     0.727700000000     0          
O        O      0.829150000000     0.671050000000     0.678200000000     0          
O        O      0.750000000000     0.625000000000     0.673600000000     0          
O        O      0.875000000000     0.625000000000     0.578800000000     0          
O        O      0.875000000000     0.562500000000     0.625000000000     0          
O        O      0.875000000000     0.670900000000     0.977700000000     0          
O        O      0.828950000000     0.704150000000     0.928200000000     0          
O        O      0.875000000000     0.625000000000     0.923600000000     0          
O        O      0.875000000000     0.500000000000     0.828800000000     0          
O        O      0.937500000000     0.500000000000     0.875000000000     0          
O        O      0.829100000000     0.625000000000     0.022300000000     0          
O        O      0.795850000000     0.671050000000     0.071800000000     0          
O        O      0.875000000000     0.625000000000     0.076400000000     0          
O        O      0.750000000000     0.625000000000     0.171200000000     0          
O        O      0.875000000000     0.704100000000     0.272300000000     0          
O        O      0.828950000000     0.670850000000     0.321800000000     0          
O        O      0.875000000000     0.500000000000     0.326400000000     0          
O        O      0.875000000000     0.625000000000     0.421200000000     0          
O        O      0.795900000000     0.500000000000     0.522300000000     0          
O        O      0.829150000000     0.703950000000     0.571800000000     0          
O        O      0.750000000000     0.500000000000     0.576400000000     0          
O        O      0.875000000000     0.500000000000     0.671200000000     0          
O        O      0.750000000000     0.670900000000     0.772300000000     0          
O        O      0.796050000000     0.704150000000     0.821800000000     0          
O        O      0.750000000000     0.625000000000     0.826400000000     0          
O        O      0.750000000000     0.500000000000     0.921200000000     0          
O        O      0.920900000000     0.625000000000     0.022300000000     0          
O        O      0.954150000000     0.671050000000     0.071800000000     0          
O        O      0.953950000000     0.704150000000     0.821800000000     0          
O        O      0.812500000000     0.500000000000     0.875000000000     0          
O        O      0.954100000000     0.500000000000     0.522300000000     0          
O        O      0.920850000000     0.703950000000     0.571800000000     0          
O        O      0.921050000000     0.670850000000     0.321800000000     0          
O        O      0.812500000000     0.625000000000     0.375000000000     0          
O        O      0.920900000000     0.500000000000     0.227700000000     0          
O        O      0.954150000000     0.703950000000     0.178200000000     0          
O        O      0.921050000000     0.704150000000     0.928200000000     0          
O        O      0.954100000000     0.625000000000     0.727700000000     0          
O        O      0.920850000000     0.671050000000     0.678200000000     0          
O        O      0.953950000000     0.670850000000     0.428200000000     0          
O        O      0.920850000000     0.578950000000     0.678200000000     0          
O        O      0.875000000000     0.687500000000     0.625000000000     0          
O        O      0.875000000000     0.579100000000     0.977700000000     0          
O        O      0.921050000000     0.545850000000     0.928200000000     0          
O        O      0.954150000000     0.546050000000     0.178200000000     0          
O        O      0.750000000000     0.687500000000     0.125000000000     0          
O        O      0.750000000000     0.545900000000     0.477700000000     0          
O        O      0.953950000000     0.579150000000     0.428200000000     0          
O        O      0.920850000000     0.546050000000     0.571800000000     0          
O        O      0.750000000000     0.579100000000     0.772300000000     0          
O        O      0.953950000000     0.545850000000     0.821800000000     0          
O        O      0.954150000000     0.578950000000     0.071800000000     0          
O        O      0.875000000000     0.545900000000     0.272300000000     0          
O        O      0.921050000000     0.579150000000     0.321800000000     0          
O        O      0.829150000000     0.546050000000     0.571800000000     0          
O        O      0.828950000000     0.579150000000     0.321800000000     0          
O        O      0.795850000000     0.578950000000     0.071800000000     0          
O        O      0.796050000000     0.545850000000     0.821800000000     0          
O        O      0.829150000000     0.578950000000     0.678200000000     0          
O        O      0.796050000000     0.579150000000     0.428200000000     0          
O        O      0.795850000000     0.546050000000     0.178200000000     0          
O        O      0.828950000000     0.545850000000     0.928200000000     0          
O        O      0.829100000000     0.750000000000     0.227700000000     0          
O        O      0.795850000000     0.953950000000     0.178200000000     0          
O        O      0.875000000000     0.750000000000     0.173600000000     0          
O        O      0.750000000000     0.750000000000     0.078800000000     0          
O        O      0.750000000000     0.812500000000     0.125000000000     0          
O        O      0.750000000000     0.954100000000     0.477700000000     0          
O        O      0.796050000000     0.920850000000     0.428200000000     0          
O        O      0.750000000000     0.750000000000     0.423600000000     0          
O        O      0.750000000000     0.875000000000     0.328800000000     0          
O        O      0.937500000000     0.875000000000     0.375000000000     0          
O        O      0.795900000000     0.875000000000     0.727700000000     0          
O        O      0.829150000000     0.921050000000     0.678200000000     0          
O        O      0.750000000000     0.875000000000     0.673600000000     0          
O        O      0.875000000000     0.875000000000     0.578800000000     0          
O        O      0.875000000000     0.812500000000     0.625000000000     0          
O        O      0.875000000000     0.920900000000     0.977700000000     0          
O        O      0.828950000000     0.954150000000     0.928200000000     0          
O        O      0.875000000000     0.875000000000     0.923600000000     0          
O        O      0.875000000000     0.750000000000     0.828800000000     0          
O        O      0.937500000000     0.750000000000     0.875000000000     0          
O        O      0.829100000000     0.875000000000     0.022300000000     0          
O        O      0.795850000000     0.921050000000     0.071800000000     0          
O        O      0.875000000000     0.875000000000     0.076400000000     0          
O        O      0.750000000000     0.875000000000     0.171200000000     0          
O        O      0.875000000000     0.954100000000     0.272300000000     0          
O        O      0.828950000000     0.920850000000     0.321800000000     0          
O        O      0.875000000000     0.750000000000     0.326400000000     0          
O        O      0.875000000000     0.875000000000     0.421200000000     0          
O        O      0.795900000000     0.750000000000     0.522300000000     0          
O        O      0.829150000000     0.953950000000     0.571800000000     0          
O        O      0.750000000000     0.750000000000     0.576400000000     0          
O        O      0.875000000000     0.750000000000     0.671200000000     0          
O        O      0.750000000000     0.920900000000     0.772300000000     0          
O        O      0.796050000000     0.954150000000     0.821800000000     0          
O        O      0.750000000000     0.875000000000     0.826400000000     0          
O        O      0.750000000000     0.750000000000     0.921200000000     0          
O        O      0.920900000000     0.875000000000     0.022300000000     0          
O        O      0.954150000000     0.921050000000     0.071800000000     0          
O        O      0.953950000000     0.954150000000     0.821800000000     0          
O        O      0.812500000000     0.750000000000     0.875000000000     0          
O        O      0.954100000000     0.750000000000     0.522300000000     0          
O        O      0.920850000000     0.953950000000     0.571800000000     0          
O        O      0.921050000000     0.920850000000     0.321800000000     0          
O        O      0.812500000000     0.875000000000     0.375000000000     0          
O        O      0.920900000000     0.750000000000     0.227700000000     0          
O        O      0.954150000000     0.953950000000     0.178200000000     0          
O        O      0.921050000000     0.954150000000     0.928200000000     0          
O        O      0.954100000000     0.875000000000     0.727700000000     0          
O        O      0.920850000000     0.921050000000     0.678200000000     0          
O        O      0.953950000000     0.920850000000     0.428200000000     0          
O        O      0.920850000000     0.828950000000     0.678200000000     0          
O        O      0.875000000000     0.937500000000     0.625000000000     0          
O        O      0.875000000000     0.829100000000     0.977700000000     0          
O        O      0.921050000000     0.795850000000     0.928200000000     0          
O        O      0.954150000000     0.796050000000     0.178200000000     0          
O        O      0.750000000000     0.937500000000     0.125000000000     0          
O        O      0.750000000000     0.795900000000     0.477700000000     0          
O        O      0.953950000000     0.829150000000     0.428200000000     0          
O        O      0.920850000000     0.796050000000     0.571800000000     0          
O        O      0.750000000000     0.829100000000     0.772300000000     0          
O        O      0.953950000000     0.795850000000     0.821800000000     0          
O        O      0.954150000000     0.828950000000     0.071800000000     0          
O        O      0.875000000000     0.795900000000     0.272300000000     0          
O        O      0.921050000000     0.829150000000     0.321800000000     0          
O        O      0.829150000000     0.796050000000     0.571800000000     0          
O        O      0.828950000000     0.829150000000     0.321800000000     0          
O        O      0.795850000000     0.828950000000     0.071800000000     0          
O        O      0.796050000000     0.795850000000     0.821800000000     0          
O        O      0.829150000000     0.828950000000     0.678200000000     0          
O        O      0.796050000000     0.829150000000     0.428200000000     0          
O        O      0.795850000000     0.796050000000     0.178200000000     0          
O        O      0.828950000000     0.795850000000     0.928200000000     0          


