data_zeolite

_audit_creation_method RASPA-1.0
_audit_creation_date 2021-6-6
_audit_author_name ''

_cell_length_a    28.5544
_cell_length_b    38.1273
_cell_length_c    26.941
_cell_angle_alpha 90
_cell_angle_beta  90
_cell_angle_gamma 90
_cell_volume      29330.7

_symmetry_cell_setting          orthorhombic
_symmetry_space_group_name_Hall 'P 1'
_symmetry_space_group_name_H-M  'P 1'
_symmetry_Int_Tables_number     1

_symmetry_equiv_pos_as_xyz 'x,y,z'

loop_
_atom_site_label
_atom_site_type_symbol
_atom_site_fract_x
_atom_site_fract_y
_atom_site_fract_z
_atom_site_charge
O        O      0.209000000000     0.171333333333     0.289900000000     0          
O        O      0.049450000000     0.177700000000     0.304450000000     0          
O        O      0.246275000000     0.233600000000     0.293050000000     0          
O        O      0.239650000000     0.196200000000     0.375000000000     0          
O        O      0.068650000000     0.052566666667     0.022350000000     0          
O        O      0.125000000000     0.000000000000     0.000000000000     0          
T        Si     0.249025000000     0.194666666667     0.316250000000     0          
T        Si     0.071600000000     0.011333333333     0.009500000000     0          
T        Si     0.036200000000     0.083333333333     0.000000000000     0          
O        O      0.041000000000     0.162000000000     0.039900000000     0          
O        O      0.200550000000     0.155633333333     0.054450000000     0          
O        O      0.003725000000     0.099733333333     0.043050000000     0          
O        O      0.010350000000     0.137133333333     0.125000000000     0          
O        O      0.181350000000     0.280766666667     0.272350000000     0          
O        O      0.125000000000     0.000000000000     0.250000000000     0          
T        Si     0.000975000000     0.138666666667     0.066250000000     0          
T        Si     0.178400000000     0.322000000000     0.259500000000     0          
T        Si     0.213800000000     0.250000000000     0.250000000000     0          
O        O      0.209000000000     0.328666666667     0.210100000000     0          
O        O      0.049450000000     0.322300000000     0.195550000000     0          
O        O      0.246275000000     0.266400000000     0.206950000000     0          
O        O      0.239650000000     0.303800000000     0.125000000000     0          
O        O      0.068650000000     0.114100000000     0.477650000000     0          
O        O      0.125000000000     0.166666666667     0.000000000000     0          
T        Si     0.249025000000     0.305333333333     0.183750000000     0          
T        Si     0.071600000000     0.155333333333     0.490500000000     0          
O        O      0.041000000000     0.004666666667     0.460100000000     0          
O        O      0.200550000000     0.011033333333     0.445550000000     0          
O        O      0.003725000000     0.066933333333     0.456950000000     0          
O        O      0.010350000000     0.029533333333     0.375000000000     0          
O        O      0.181350000000     0.219233333333     0.227650000000     0          
O        O      0.125000000000     0.166666666667     0.250000000000     0          
T        Si     0.000975000000     0.028000000000     0.433750000000     0          
T        Si     0.178400000000     0.178000000000     0.240500000000     0          
O        O      0.041000000000     0.162000000000     0.210100000000     0          
O        O      0.200550000000     0.155633333333     0.195550000000     0          
O        O      0.003725000000     0.099733333333     0.206950000000     0          
O        O      0.181350000000     0.280766666667     0.477650000000     0          
T        Si     0.000975000000     0.138666666667     0.183750000000     0          
T        Si     0.178400000000     0.322000000000     0.490500000000     0          
T        Si     0.213800000000     0.250000000000     0.000000000000     0          
O        O      0.209000000000     0.171333333333     0.460100000000     0          
O        O      0.049450000000     0.177700000000     0.445550000000     0          
O        O      0.246275000000     0.233600000000     0.456950000000     0          
O        O      0.068650000000     0.052566666667     0.227650000000     0          
T        Si     0.249025000000     0.194666666667     0.433750000000     0          
T        Si     0.071600000000     0.011333333333     0.240500000000     0          
T        Si     0.036200000000     0.083333333333     0.250000000000     0          
O        O      0.041000000000     0.004666666667     0.289900000000     0          
O        O      0.200550000000     0.011033333333     0.304450000000     0          
O        O      0.003725000000     0.066933333333     0.293050000000     0          
O        O      0.181350000000     0.219233333333     0.022350000000     0          
T        Si     0.000975000000     0.028000000000     0.316250000000     0          
T        Si     0.178400000000     0.178000000000     0.009500000000     0          
O        O      0.209000000000     0.328666666667     0.039900000000     0          
O        O      0.049450000000     0.322300000000     0.054450000000     0          
O        O      0.246275000000     0.266400000000     0.043050000000     0          
O        O      0.068650000000     0.114100000000     0.272350000000     0          
T        Si     0.249025000000     0.305333333333     0.066250000000     0          
T        Si     0.071600000000     0.155333333333     0.259500000000     0          
O        O      0.209000000000     0.171333333333     0.789900000000     0          
O        O      0.049450000000     0.177700000000     0.804450000000     0          
O        O      0.246275000000     0.233600000000     0.793050000000     0          
O        O      0.239650000000     0.196200000000     0.875000000000     0          
O        O      0.068650000000     0.052566666667     0.522350000000     0          
O        O      0.125000000000     0.000000000000     0.500000000000     0          
T        Si     0.249025000000     0.194666666667     0.816250000000     0          
T        Si     0.071600000000     0.011333333333     0.509500000000     0          
T        Si     0.036200000000     0.083333333333     0.500000000000     0          
O        O      0.041000000000     0.162000000000     0.539900000000     0          
O        O      0.200550000000     0.155633333333     0.554450000000     0          
O        O      0.003725000000     0.099733333333     0.543050000000     0          
O        O      0.010350000000     0.137133333333     0.625000000000     0          
O        O      0.181350000000     0.280766666667     0.772350000000     0          
O        O      0.125000000000     0.000000000000     0.750000000000     0          
T        Si     0.000975000000     0.138666666667     0.566250000000     0          
T        Si     0.178400000000     0.322000000000     0.759500000000     0          
T        Si     0.213800000000     0.250000000000     0.750000000000     0          
O        O      0.209000000000     0.328666666667     0.710100000000     0          
O        O      0.049450000000     0.322300000000     0.695550000000     0          
O        O      0.246275000000     0.266400000000     0.706950000000     0          
O        O      0.239650000000     0.303800000000     0.625000000000     0          
O        O      0.068650000000     0.114100000000     0.977650000000     0          
O        O      0.125000000000     0.166666666667     0.500000000000     0          
T        Si     0.249025000000     0.305333333333     0.683750000000     0          
T        Si     0.071600000000     0.155333333333     0.990500000000     0          
O        O      0.041000000000     0.004666666667     0.960100000000     0          
O        O      0.200550000000     0.011033333333     0.945550000000     0          
O        O      0.003725000000     0.066933333333     0.956950000000     0          
O        O      0.010350000000     0.029533333333     0.875000000000     0          
O        O      0.181350000000     0.219233333333     0.727650000000     0          
O        O      0.125000000000     0.166666666667     0.750000000000     0          
T        Si     0.000975000000     0.028000000000     0.933750000000     0          
T        Si     0.178400000000     0.178000000000     0.740500000000     0          
O        O      0.041000000000     0.162000000000     0.710100000000     0          
O        O      0.200550000000     0.155633333333     0.695550000000     0          
O        O      0.003725000000     0.099733333333     0.706950000000     0          
O        O      0.181350000000     0.280766666667     0.977650000000     0          
T        Si     0.000975000000     0.138666666667     0.683750000000     0          
T        Si     0.178400000000     0.322000000000     0.990500000000     0          
T        Si     0.213800000000     0.250000000000     0.500000000000     0          
O        O      0.209000000000     0.171333333333     0.960100000000     0          
O        O      0.049450000000     0.177700000000     0.945550000000     0          
O        O      0.246275000000     0.233600000000     0.956950000000     0          
O        O      0.068650000000     0.052566666667     0.727650000000     0          
T        Si     0.249025000000     0.194666666667     0.933750000000     0          
T        Si     0.071600000000     0.011333333333     0.740500000000     0          
T        Si     0.036200000000     0.083333333333     0.750000000000     0          
O        O      0.041000000000     0.004666666667     0.789900000000     0          
O        O      0.200550000000     0.011033333333     0.804450000000     0          
O        O      0.003725000000     0.066933333333     0.793050000000     0          
O        O      0.181350000000     0.219233333333     0.522350000000     0          
T        Si     0.000975000000     0.028000000000     0.816250000000     0          
T        Si     0.178400000000     0.178000000000     0.509500000000     0          
O        O      0.209000000000     0.328666666667     0.539900000000     0          
O        O      0.049450000000     0.322300000000     0.554450000000     0          
O        O      0.246275000000     0.266400000000     0.543050000000     0          
O        O      0.068650000000     0.114100000000     0.772350000000     0          
T        Si     0.249025000000     0.305333333333     0.566250000000     0          
T        Si     0.071600000000     0.155333333333     0.759500000000     0          
O        O      0.209000000000     0.504666666667     0.289900000000     0          
O        O      0.049450000000     0.511033333333     0.304450000000     0          
O        O      0.246275000000     0.566933333333     0.293050000000     0          
O        O      0.239650000000     0.529533333333     0.375000000000     0          
O        O      0.068650000000     0.385900000000     0.022350000000     0          
O        O      0.125000000000     0.333333333333     0.000000000000     0          
T        Si     0.249025000000     0.528000000000     0.316250000000     0          
T        Si     0.071600000000     0.344666666667     0.009500000000     0          
T        Si     0.036200000000     0.416666666667     0.000000000000     0          
O        O      0.041000000000     0.495333333333     0.039900000000     0          
O        O      0.200550000000     0.488966666667     0.054450000000     0          
O        O      0.003725000000     0.433066666667     0.043050000000     0          
O        O      0.010350000000     0.470466666667     0.125000000000     0          
O        O      0.181350000000     0.614100000000     0.272350000000     0          
O        O      0.125000000000     0.333333333333     0.250000000000     0          
T        Si     0.000975000000     0.472000000000     0.066250000000     0          
T        Si     0.178400000000     0.655333333333     0.259500000000     0          
T        Si     0.213800000000     0.583333333333     0.250000000000     0          
O        O      0.209000000000     0.662000000000     0.210100000000     0          
O        O      0.049450000000     0.655633333333     0.195550000000     0          
O        O      0.246275000000     0.599733333333     0.206950000000     0          
O        O      0.239650000000     0.637133333333     0.125000000000     0          
O        O      0.068650000000     0.447433333333     0.477650000000     0          
O        O      0.125000000000     0.500000000000     0.000000000000     0          
T        Si     0.249025000000     0.638666666667     0.183750000000     0          
T        Si     0.071600000000     0.488666666667     0.490500000000     0          
O        O      0.041000000000     0.338000000000     0.460100000000     0          
O        O      0.200550000000     0.344366666667     0.445550000000     0          
O        O      0.003725000000     0.400266666667     0.456950000000     0          
O        O      0.010350000000     0.362866666667     0.375000000000     0          
O        O      0.181350000000     0.552566666667     0.227650000000     0          
O        O      0.125000000000     0.500000000000     0.250000000000     0          
T        Si     0.000975000000     0.361333333333     0.433750000000     0          
T        Si     0.178400000000     0.511333333333     0.240500000000     0          
O        O      0.041000000000     0.495333333333     0.210100000000     0          
O        O      0.200550000000     0.488966666667     0.195550000000     0          
O        O      0.003725000000     0.433066666667     0.206950000000     0          
O        O      0.181350000000     0.614100000000     0.477650000000     0          
T        Si     0.000975000000     0.472000000000     0.183750000000     0          
T        Si     0.178400000000     0.655333333333     0.490500000000     0          
T        Si     0.213800000000     0.583333333333     0.000000000000     0          
O        O      0.209000000000     0.504666666667     0.460100000000     0          
O        O      0.049450000000     0.511033333333     0.445550000000     0          
O        O      0.246275000000     0.566933333333     0.456950000000     0          
O        O      0.068650000000     0.385900000000     0.227650000000     0          
T        Si     0.249025000000     0.528000000000     0.433750000000     0          
T        Si     0.071600000000     0.344666666667     0.240500000000     0          
T        Si     0.036200000000     0.416666666667     0.250000000000     0          
O        O      0.041000000000     0.338000000000     0.289900000000     0          
O        O      0.200550000000     0.344366666667     0.304450000000     0          
O        O      0.003725000000     0.400266666667     0.293050000000     0          
O        O      0.181350000000     0.552566666667     0.022350000000     0          
T        Si     0.000975000000     0.361333333333     0.316250000000     0          
T        Si     0.178400000000     0.511333333333     0.009500000000     0          
O        O      0.209000000000     0.662000000000     0.039900000000     0          
O        O      0.049450000000     0.655633333333     0.054450000000     0          
O        O      0.246275000000     0.599733333333     0.043050000000     0          
O        O      0.068650000000     0.447433333333     0.272350000000     0          
T        Si     0.249025000000     0.638666666667     0.066250000000     0          
T        Si     0.071600000000     0.488666666667     0.259500000000     0          
O        O      0.209000000000     0.504666666667     0.789900000000     0          
O        O      0.049450000000     0.511033333333     0.804450000000     0          
O        O      0.246275000000     0.566933333333     0.793050000000     0          
O        O      0.239650000000     0.529533333333     0.875000000000     0          
O        O      0.068650000000     0.385900000000     0.522350000000     0          
O        O      0.125000000000     0.333333333333     0.500000000000     0          
T        Si     0.249025000000     0.528000000000     0.816250000000     0          
T        Si     0.071600000000     0.344666666667     0.509500000000     0          
T        Si     0.036200000000     0.416666666667     0.500000000000     0          
O        O      0.041000000000     0.495333333333     0.539900000000     0          
O        O      0.200550000000     0.488966666667     0.554450000000     0          
O        O      0.003725000000     0.433066666667     0.543050000000     0          
O        O      0.010350000000     0.470466666667     0.625000000000     0          
O        O      0.181350000000     0.614100000000     0.772350000000     0          
O        O      0.125000000000     0.333333333333     0.750000000000     0          
T        Si     0.000975000000     0.472000000000     0.566250000000     0          
T        Si     0.178400000000     0.655333333333     0.759500000000     0          
T        Si     0.213800000000     0.583333333333     0.750000000000     0          
O        O      0.209000000000     0.662000000000     0.710100000000     0          
O        O      0.049450000000     0.655633333333     0.695550000000     0          
O        O      0.246275000000     0.599733333333     0.706950000000     0          
O        O      0.239650000000     0.637133333333     0.625000000000     0          
O        O      0.068650000000     0.447433333333     0.977650000000     0          
O        O      0.125000000000     0.500000000000     0.500000000000     0          
T        Si     0.249025000000     0.638666666667     0.683750000000     0          
T        Si     0.071600000000     0.488666666667     0.990500000000     0          
O        O      0.041000000000     0.338000000000     0.960100000000     0          
O        O      0.200550000000     0.344366666667     0.945550000000     0          
O        O      0.003725000000     0.400266666667     0.956950000000     0          
O        O      0.010350000000     0.362866666667     0.875000000000     0          
O        O      0.181350000000     0.552566666667     0.727650000000     0          
O        O      0.125000000000     0.500000000000     0.750000000000     0          
T        Si     0.000975000000     0.361333333333     0.933750000000     0          
T        Si     0.178400000000     0.511333333333     0.740500000000     0          
O        O      0.041000000000     0.495333333333     0.710100000000     0          
O        O      0.200550000000     0.488966666667     0.695550000000     0          
O        O      0.003725000000     0.433066666667     0.706950000000     0          
O        O      0.181350000000     0.614100000000     0.977650000000     0          
T        Si     0.000975000000     0.472000000000     0.683750000000     0          
T        Si     0.178400000000     0.655333333333     0.990500000000     0          
T        Si     0.213800000000     0.583333333333     0.500000000000     0          
O        O      0.209000000000     0.504666666667     0.960100000000     0          
O        O      0.049450000000     0.511033333333     0.945550000000     0          
O        O      0.246275000000     0.566933333333     0.956950000000     0          
O        O      0.068650000000     0.385900000000     0.727650000000     0          
T        Si     0.249025000000     0.528000000000     0.933750000000     0          
T        Si     0.071600000000     0.344666666667     0.740500000000     0          
T        Si     0.036200000000     0.416666666667     0.750000000000     0          
O        O      0.041000000000     0.338000000000     0.789900000000     0          
O        O      0.200550000000     0.344366666667     0.804450000000     0          
O        O      0.003725000000     0.400266666667     0.793050000000     0          
O        O      0.181350000000     0.552566666667     0.522350000000     0          
T        Si     0.000975000000     0.361333333333     0.816250000000     0          
T        Si     0.178400000000     0.511333333333     0.509500000000     0          
O        O      0.209000000000     0.662000000000     0.539900000000     0          
O        O      0.049450000000     0.655633333333     0.554450000000     0          
O        O      0.246275000000     0.599733333333     0.543050000000     0          
O        O      0.068650000000     0.447433333333     0.772350000000     0          
T        Si     0.249025000000     0.638666666667     0.566250000000     0          
T        Si     0.071600000000     0.488666666667     0.759500000000     0          
O        O      0.209000000000     0.838000000000     0.289900000000     0          
O        O      0.049450000000     0.844366666667     0.304450000000     0          
O        O      0.246275000000     0.900266666667     0.293050000000     0          
O        O      0.239650000000     0.862866666667     0.375000000000     0          
O        O      0.068650000000     0.719233333333     0.022350000000     0          
O        O      0.125000000000     0.666666666667     0.000000000000     0          
T        Si     0.249025000000     0.861333333333     0.316250000000     0          
T        Si     0.071600000000     0.678000000000     0.009500000000     0          
T        Si     0.036200000000     0.750000000000     0.000000000000     0          
O        O      0.041000000000     0.828666666667     0.039900000000     0          
O        O      0.200550000000     0.822300000000     0.054450000000     0          
O        O      0.003725000000     0.766400000000     0.043050000000     0          
O        O      0.010350000000     0.803800000000     0.125000000000     0          
O        O      0.181350000000     0.947433333333     0.272350000000     0          
O        O      0.125000000000     0.666666666667     0.250000000000     0          
T        Si     0.000975000000     0.805333333333     0.066250000000     0          
T        Si     0.178400000000     0.988666666667     0.259500000000     0          
T        Si     0.213800000000     0.916666666667     0.250000000000     0          
O        O      0.209000000000     0.995333333333     0.210100000000     0          
O        O      0.049450000000     0.988966666667     0.195550000000     0          
O        O      0.246275000000     0.933066666667     0.206950000000     0          
O        O      0.239650000000     0.970466666667     0.125000000000     0          
O        O      0.068650000000     0.780766666667     0.477650000000     0          
O        O      0.125000000000     0.833333333333     0.000000000000     0          
T        Si     0.249025000000     0.972000000000     0.183750000000     0          
T        Si     0.071600000000     0.822000000000     0.490500000000     0          
O        O      0.041000000000     0.671333333333     0.460100000000     0          
O        O      0.200550000000     0.677700000000     0.445550000000     0          
O        O      0.003725000000     0.733600000000     0.456950000000     0          
O        O      0.010350000000     0.696200000000     0.375000000000     0          
O        O      0.181350000000     0.885900000000     0.227650000000     0          
O        O      0.125000000000     0.833333333333     0.250000000000     0          
T        Si     0.000975000000     0.694666666667     0.433750000000     0          
T        Si     0.178400000000     0.844666666667     0.240500000000     0          
O        O      0.041000000000     0.828666666667     0.210100000000     0          
O        O      0.200550000000     0.822300000000     0.195550000000     0          
O        O      0.003725000000     0.766400000000     0.206950000000     0          
O        O      0.181350000000     0.947433333333     0.477650000000     0          
T        Si     0.000975000000     0.805333333333     0.183750000000     0          
T        Si     0.178400000000     0.988666666667     0.490500000000     0          
T        Si     0.213800000000     0.916666666667     0.000000000000     0          
O        O      0.209000000000     0.838000000000     0.460100000000     0          
O        O      0.049450000000     0.844366666667     0.445550000000     0          
O        O      0.246275000000     0.900266666667     0.456950000000     0          
O        O      0.068650000000     0.719233333333     0.227650000000     0          
T        Si     0.249025000000     0.861333333333     0.433750000000     0          
T        Si     0.071600000000     0.678000000000     0.240500000000     0          
T        Si     0.036200000000     0.750000000000     0.250000000000     0          
O        O      0.041000000000     0.671333333333     0.289900000000     0          
O        O      0.200550000000     0.677700000000     0.304450000000     0          
O        O      0.003725000000     0.733600000000     0.293050000000     0          
O        O      0.181350000000     0.885900000000     0.022350000000     0          
T        Si     0.000975000000     0.694666666667     0.316250000000     0          
T        Si     0.178400000000     0.844666666667     0.009500000000     0          
O        O      0.209000000000     0.995333333333     0.039900000000     0          
O        O      0.049450000000     0.988966666667     0.054450000000     0          
O        O      0.246275000000     0.933066666667     0.043050000000     0          
O        O      0.068650000000     0.780766666667     0.272350000000     0          
T        Si     0.249025000000     0.972000000000     0.066250000000     0          
T        Si     0.071600000000     0.822000000000     0.259500000000     0          
O        O      0.209000000000     0.838000000000     0.789900000000     0          
O        O      0.049450000000     0.844366666667     0.804450000000     0          
O        O      0.246275000000     0.900266666667     0.793050000000     0          
O        O      0.239650000000     0.862866666667     0.875000000000     0          
O        O      0.068650000000     0.719233333333     0.522350000000     0          
O        O      0.125000000000     0.666666666667     0.500000000000     0          
T        Si     0.249025000000     0.861333333333     0.816250000000     0          
T        Si     0.071600000000     0.678000000000     0.509500000000     0          
T        Si     0.036200000000     0.750000000000     0.500000000000     0          
O        O      0.041000000000     0.828666666667     0.539900000000     0          
O        O      0.200550000000     0.822300000000     0.554450000000     0          
O        O      0.003725000000     0.766400000000     0.543050000000     0          
O        O      0.010350000000     0.803800000000     0.625000000000     0          
O        O      0.181350000000     0.947433333333     0.772350000000     0          
O        O      0.125000000000     0.666666666667     0.750000000000     0          
T        Si     0.000975000000     0.805333333333     0.566250000000     0          
T        Si     0.178400000000     0.988666666667     0.759500000000     0          
T        Si     0.213800000000     0.916666666667     0.750000000000     0          
O        O      0.209000000000     0.995333333333     0.710100000000     0          
O        O      0.049450000000     0.988966666667     0.695550000000     0          
O        O      0.246275000000     0.933066666667     0.706950000000     0          
O        O      0.239650000000     0.970466666667     0.625000000000     0          
O        O      0.068650000000     0.780766666667     0.977650000000     0          
O        O      0.125000000000     0.833333333333     0.500000000000     0          
T        Si     0.249025000000     0.972000000000     0.683750000000     0          
T        Si     0.071600000000     0.822000000000     0.990500000000     0          
O        O      0.041000000000     0.671333333333     0.960100000000     0          
O        O      0.200550000000     0.677700000000     0.945550000000     0          
O        O      0.003725000000     0.733600000000     0.956950000000     0          
O        O      0.010350000000     0.696200000000     0.875000000000     0          
O        O      0.181350000000     0.885900000000     0.727650000000     0          
O        O      0.125000000000     0.833333333333     0.750000000000     0          
T        Si     0.000975000000     0.694666666667     0.933750000000     0          
T        Si     0.178400000000     0.844666666667     0.740500000000     0          
O        O      0.041000000000     0.828666666667     0.710100000000     0          
O        O      0.200550000000     0.822300000000     0.695550000000     0          
O        O      0.003725000000     0.766400000000     0.706950000000     0          
O        O      0.181350000000     0.947433333333     0.977650000000     0          
T        Si     0.000975000000     0.805333333333     0.683750000000     0          
T        Si     0.178400000000     0.988666666667     0.990500000000     0          
T        Si     0.213800000000     0.916666666667     0.500000000000     0          
O        O      0.209000000000     0.838000000000     0.960100000000     0          
O        O      0.049450000000     0.844366666667     0.945550000000     0          
O        O      0.246275000000     0.900266666667     0.956950000000     0          
O        O      0.068650000000     0.719233333333     0.727650000000     0          
T        Si     0.249025000000     0.861333333333     0.933750000000     0          
T        Si     0.071600000000     0.678000000000     0.740500000000     0          
T        Si     0.036200000000     0.750000000000     0.750000000000     0          
O        O      0.041000000000     0.671333333333     0.789900000000     0          
O        O      0.200550000000     0.677700000000     0.804450000000     0          
O        O      0.003725000000     0.733600000000     0.793050000000     0          
O        O      0.181350000000     0.885900000000     0.522350000000     0          
T        Si     0.000975000000     0.694666666667     0.816250000000     0          
T        Si     0.178400000000     0.844666666667     0.509500000000     0          
O        O      0.209000000000     0.995333333333     0.539900000000     0          
O        O      0.049450000000     0.988966666667     0.554450000000     0          
O        O      0.246275000000     0.933066666667     0.543050000000     0          
O        O      0.068650000000     0.780766666667     0.772350000000     0          
T        Si     0.249025000000     0.972000000000     0.566250000000     0          
T        Si     0.071600000000     0.822000000000     0.759500000000     0          
O        O      0.459000000000     0.171333333333     0.289900000000     0          
O        O      0.299450000000     0.177700000000     0.304450000000     0          
O        O      0.496275000000     0.233600000000     0.293050000000     0          
O        O      0.489650000000     0.196200000000     0.375000000000     0          
O        O      0.318650000000     0.052566666667     0.022350000000     0          
O        O      0.375000000000     0.000000000000     0.000000000000     0          
T        Si     0.499025000000     0.194666666667     0.316250000000     0          
T        Si     0.321600000000     0.011333333333     0.009500000000     0          
T        Si     0.286200000000     0.083333333333     0.000000000000     0          
O        O      0.291000000000     0.162000000000     0.039900000000     0          
O        O      0.450550000000     0.155633333333     0.054450000000     0          
O        O      0.253725000000     0.099733333333     0.043050000000     0          
O        O      0.260350000000     0.137133333333     0.125000000000     0          
O        O      0.431350000000     0.280766666667     0.272350000000     0          
O        O      0.375000000000     0.000000000000     0.250000000000     0          
T        Si     0.250975000000     0.138666666667     0.066250000000     0          
T        Si     0.428400000000     0.322000000000     0.259500000000     0          
T        Si     0.463800000000     0.250000000000     0.250000000000     0          
O        O      0.459000000000     0.328666666667     0.210100000000     0          
O        O      0.299450000000     0.322300000000     0.195550000000     0          
O        O      0.496275000000     0.266400000000     0.206950000000     0          
O        O      0.489650000000     0.303800000000     0.125000000000     0          
O        O      0.318650000000     0.114100000000     0.477650000000     0          
O        O      0.375000000000     0.166666666667     0.000000000000     0          
T        Si     0.499025000000     0.305333333333     0.183750000000     0          
T        Si     0.321600000000     0.155333333333     0.490500000000     0          
O        O      0.291000000000     0.004666666667     0.460100000000     0          
O        O      0.450550000000     0.011033333333     0.445550000000     0          
O        O      0.253725000000     0.066933333333     0.456950000000     0          
O        O      0.260350000000     0.029533333333     0.375000000000     0          
O        O      0.431350000000     0.219233333333     0.227650000000     0          
O        O      0.375000000000     0.166666666667     0.250000000000     0          
T        Si     0.250975000000     0.028000000000     0.433750000000     0          
T        Si     0.428400000000     0.178000000000     0.240500000000     0          
O        O      0.291000000000     0.162000000000     0.210100000000     0          
O        O      0.450550000000     0.155633333333     0.195550000000     0          
O        O      0.253725000000     0.099733333333     0.206950000000     0          
O        O      0.431350000000     0.280766666667     0.477650000000     0          
T        Si     0.250975000000     0.138666666667     0.183750000000     0          
T        Si     0.428400000000     0.322000000000     0.490500000000     0          
T        Si     0.463800000000     0.250000000000     0.000000000000     0          
O        O      0.459000000000     0.171333333333     0.460100000000     0          
O        O      0.299450000000     0.177700000000     0.445550000000     0          
O        O      0.496275000000     0.233600000000     0.456950000000     0          
O        O      0.318650000000     0.052566666667     0.227650000000     0          
T        Si     0.499025000000     0.194666666667     0.433750000000     0          
T        Si     0.321600000000     0.011333333333     0.240500000000     0          
T        Si     0.286200000000     0.083333333333     0.250000000000     0          
O        O      0.291000000000     0.004666666667     0.289900000000     0          
O        O      0.450550000000     0.011033333333     0.304450000000     0          
O        O      0.253725000000     0.066933333333     0.293050000000     0          
O        O      0.431350000000     0.219233333333     0.022350000000     0          
T        Si     0.250975000000     0.028000000000     0.316250000000     0          
T        Si     0.428400000000     0.178000000000     0.009500000000     0          
O        O      0.459000000000     0.328666666667     0.039900000000     0          
O        O      0.299450000000     0.322300000000     0.054450000000     0          
O        O      0.496275000000     0.266400000000     0.043050000000     0          
O        O      0.318650000000     0.114100000000     0.272350000000     0          
T        Si     0.499025000000     0.305333333333     0.066250000000     0          
T        Si     0.321600000000     0.155333333333     0.259500000000     0          
O        O      0.459000000000     0.171333333333     0.789900000000     0          
O        O      0.299450000000     0.177700000000     0.804450000000     0          
O        O      0.496275000000     0.233600000000     0.793050000000     0          
O        O      0.489650000000     0.196200000000     0.875000000000     0          
O        O      0.318650000000     0.052566666667     0.522350000000     0          
O        O      0.375000000000     0.000000000000     0.500000000000     0          
T        Si     0.499025000000     0.194666666667     0.816250000000     0          
T        Si     0.321600000000     0.011333333333     0.509500000000     0          
T        Si     0.286200000000     0.083333333333     0.500000000000     0          
O        O      0.291000000000     0.162000000000     0.539900000000     0          
O        O      0.450550000000     0.155633333333     0.554450000000     0          
O        O      0.253725000000     0.099733333333     0.543050000000     0          
O        O      0.260350000000     0.137133333333     0.625000000000     0          
O        O      0.431350000000     0.280766666667     0.772350000000     0          
O        O      0.375000000000     0.000000000000     0.750000000000     0          
T        Si     0.250975000000     0.138666666667     0.566250000000     0          
T        Si     0.428400000000     0.322000000000     0.759500000000     0          
T        Si     0.463800000000     0.250000000000     0.750000000000     0          
O        O      0.459000000000     0.328666666667     0.710100000000     0          
O        O      0.299450000000     0.322300000000     0.695550000000     0          
O        O      0.496275000000     0.266400000000     0.706950000000     0          
O        O      0.489650000000     0.303800000000     0.625000000000     0          
O        O      0.318650000000     0.114100000000     0.977650000000     0          
O        O      0.375000000000     0.166666666667     0.500000000000     0          
T        Si     0.499025000000     0.305333333333     0.683750000000     0          
T        Si     0.321600000000     0.155333333333     0.990500000000     0          
O        O      0.291000000000     0.004666666667     0.960100000000     0          
O        O      0.450550000000     0.011033333333     0.945550000000     0          
O        O      0.253725000000     0.066933333333     0.956950000000     0          
O        O      0.260350000000     0.029533333333     0.875000000000     0          
O        O      0.431350000000     0.219233333333     0.727650000000     0          
O        O      0.375000000000     0.166666666667     0.750000000000     0          
T        Si     0.250975000000     0.028000000000     0.933750000000     0          
T        Si     0.428400000000     0.178000000000     0.740500000000     0          
O        O      0.291000000000     0.162000000000     0.710100000000     0          
O        O      0.450550000000     0.155633333333     0.695550000000     0          
O        O      0.253725000000     0.099733333333     0.706950000000     0          
O        O      0.431350000000     0.280766666667     0.977650000000     0          
T        Si     0.250975000000     0.138666666667     0.683750000000     0          
T        Si     0.428400000000     0.322000000000     0.990500000000     0          
T        Si     0.463800000000     0.250000000000     0.500000000000     0          
O        O      0.459000000000     0.171333333333     0.960100000000     0          
O        O      0.299450000000     0.177700000000     0.945550000000     0          
O        O      0.496275000000     0.233600000000     0.956950000000     0          
O        O      0.318650000000     0.052566666667     0.727650000000     0          
T        Si     0.499025000000     0.194666666667     0.933750000000     0          
T        Si     0.321600000000     0.011333333333     0.740500000000     0          
T        Si     0.286200000000     0.083333333333     0.750000000000     0          
O        O      0.291000000000     0.004666666667     0.789900000000     0          
O        O      0.450550000000     0.011033333333     0.804450000000     0          
O        O      0.253725000000     0.066933333333     0.793050000000     0          
O        O      0.431350000000     0.219233333333     0.522350000000     0          
T        Si     0.250975000000     0.028000000000     0.816250000000     0          
T        Si     0.428400000000     0.178000000000     0.509500000000     0          
O        O      0.459000000000     0.328666666667     0.539900000000     0          
O        O      0.299450000000     0.322300000000     0.554450000000     0          
O        O      0.496275000000     0.266400000000     0.543050000000     0          
O        O      0.318650000000     0.114100000000     0.772350000000     0          
T        Si     0.499025000000     0.305333333333     0.566250000000     0          
T        Si     0.321600000000     0.155333333333     0.759500000000     0          
O        O      0.459000000000     0.504666666667     0.289900000000     0          
O        O      0.299450000000     0.511033333333     0.304450000000     0          
O        O      0.496275000000     0.566933333333     0.293050000000     0          
O        O      0.489650000000     0.529533333333     0.375000000000     0          
O        O      0.318650000000     0.385900000000     0.022350000000     0          
O        O      0.375000000000     0.333333333333     0.000000000000     0          
T        Si     0.499025000000     0.528000000000     0.316250000000     0          
T        Si     0.321600000000     0.344666666667     0.009500000000     0          
T        Si     0.286200000000     0.416666666667     0.000000000000     0          
O        O      0.291000000000     0.495333333333     0.039900000000     0          
O        O      0.450550000000     0.488966666667     0.054450000000     0          
O        O      0.253725000000     0.433066666667     0.043050000000     0          
O        O      0.260350000000     0.470466666667     0.125000000000     0          
O        O      0.431350000000     0.614100000000     0.272350000000     0          
O        O      0.375000000000     0.333333333333     0.250000000000     0          
T        Si     0.250975000000     0.472000000000     0.066250000000     0          
T        Si     0.428400000000     0.655333333333     0.259500000000     0          
T        Si     0.463800000000     0.583333333333     0.250000000000     0          
O        O      0.459000000000     0.662000000000     0.210100000000     0          
O        O      0.299450000000     0.655633333333     0.195550000000     0          
O        O      0.496275000000     0.599733333333     0.206950000000     0          
O        O      0.489650000000     0.637133333333     0.125000000000     0          
O        O      0.318650000000     0.447433333333     0.477650000000     0          
O        O      0.375000000000     0.500000000000     0.000000000000     0          
T        Si     0.499025000000     0.638666666667     0.183750000000     0          
T        Si     0.321600000000     0.488666666667     0.490500000000     0          
O        O      0.291000000000     0.338000000000     0.460100000000     0          
O        O      0.450550000000     0.344366666667     0.445550000000     0          
O        O      0.253725000000     0.400266666667     0.456950000000     0          
O        O      0.260350000000     0.362866666667     0.375000000000     0          
O        O      0.431350000000     0.552566666667     0.227650000000     0          
O        O      0.375000000000     0.500000000000     0.250000000000     0          
T        Si     0.250975000000     0.361333333333     0.433750000000     0          
T        Si     0.428400000000     0.511333333333     0.240500000000     0          
O        O      0.291000000000     0.495333333333     0.210100000000     0          
O        O      0.450550000000     0.488966666667     0.195550000000     0          
O        O      0.253725000000     0.433066666667     0.206950000000     0          
O        O      0.431350000000     0.614100000000     0.477650000000     0          
T        Si     0.250975000000     0.472000000000     0.183750000000     0          
T        Si     0.428400000000     0.655333333333     0.490500000000     0          
T        Si     0.463800000000     0.583333333333     0.000000000000     0          
O        O      0.459000000000     0.504666666667     0.460100000000     0          
O        O      0.299450000000     0.511033333333     0.445550000000     0          
O        O      0.496275000000     0.566933333333     0.456950000000     0          
O        O      0.318650000000     0.385900000000     0.227650000000     0          
T        Si     0.499025000000     0.528000000000     0.433750000000     0          
T        Si     0.321600000000     0.344666666667     0.240500000000     0          
T        Si     0.286200000000     0.416666666667     0.250000000000     0          
O        O      0.291000000000     0.338000000000     0.289900000000     0          
O        O      0.450550000000     0.344366666667     0.304450000000     0          
O        O      0.253725000000     0.400266666667     0.293050000000     0          
O        O      0.431350000000     0.552566666667     0.022350000000     0          
T        Si     0.250975000000     0.361333333333     0.316250000000     0          
T        Si     0.428400000000     0.511333333333     0.009500000000     0          
O        O      0.459000000000     0.662000000000     0.039900000000     0          
O        O      0.299450000000     0.655633333333     0.054450000000     0          
O        O      0.496275000000     0.599733333333     0.043050000000     0          
O        O      0.318650000000     0.447433333333     0.272350000000     0          
T        Si     0.499025000000     0.638666666667     0.066250000000     0          
T        Si     0.321600000000     0.488666666667     0.259500000000     0          
O        O      0.459000000000     0.504666666667     0.789900000000     0          
O        O      0.299450000000     0.511033333333     0.804450000000     0          
O        O      0.496275000000     0.566933333333     0.793050000000     0          
O        O      0.489650000000     0.529533333333     0.875000000000     0          
O        O      0.318650000000     0.385900000000     0.522350000000     0          
O        O      0.375000000000     0.333333333333     0.500000000000     0          
T        Si     0.499025000000     0.528000000000     0.816250000000     0          
T        Si     0.321600000000     0.344666666667     0.509500000000     0          
T        Si     0.286200000000     0.416666666667     0.500000000000     0          
O        O      0.291000000000     0.495333333333     0.539900000000     0          
O        O      0.450550000000     0.488966666667     0.554450000000     0          
O        O      0.253725000000     0.433066666667     0.543050000000     0          
O        O      0.260350000000     0.470466666667     0.625000000000     0          
O        O      0.431350000000     0.614100000000     0.772350000000     0          
O        O      0.375000000000     0.333333333333     0.750000000000     0          
T        Si     0.250975000000     0.472000000000     0.566250000000     0          
T        Si     0.428400000000     0.655333333333     0.759500000000     0          
T        Si     0.463800000000     0.583333333333     0.750000000000     0          
O        O      0.459000000000     0.662000000000     0.710100000000     0          
O        O      0.299450000000     0.655633333333     0.695550000000     0          
O        O      0.496275000000     0.599733333333     0.706950000000     0          
O        O      0.489650000000     0.637133333333     0.625000000000     0          
O        O      0.318650000000     0.447433333333     0.977650000000     0          
O        O      0.375000000000     0.500000000000     0.500000000000     0          
T        Si     0.499025000000     0.638666666667     0.683750000000     0          
T        Si     0.321600000000     0.488666666667     0.990500000000     0          
O        O      0.291000000000     0.338000000000     0.960100000000     0          
O        O      0.450550000000     0.344366666667     0.945550000000     0          
O        O      0.253725000000     0.400266666667     0.956950000000     0          
O        O      0.260350000000     0.362866666667     0.875000000000     0          
O        O      0.431350000000     0.552566666667     0.727650000000     0          
O        O      0.375000000000     0.500000000000     0.750000000000     0          
T        Si     0.250975000000     0.361333333333     0.933750000000     0          
T        Si     0.428400000000     0.511333333333     0.740500000000     0          
O        O      0.291000000000     0.495333333333     0.710100000000     0          
O        O      0.450550000000     0.488966666667     0.695550000000     0          
O        O      0.253725000000     0.433066666667     0.706950000000     0          
O        O      0.431350000000     0.614100000000     0.977650000000     0          
T        Si     0.250975000000     0.472000000000     0.683750000000     0          
T        Si     0.428400000000     0.655333333333     0.990500000000     0          
T        Si     0.463800000000     0.583333333333     0.500000000000     0          
O        O      0.459000000000     0.504666666667     0.960100000000     0          
O        O      0.299450000000     0.511033333333     0.945550000000     0          
O        O      0.496275000000     0.566933333333     0.956950000000     0          
O        O      0.318650000000     0.385900000000     0.727650000000     0          
T        Si     0.499025000000     0.528000000000     0.933750000000     0          
T        Si     0.321600000000     0.344666666667     0.740500000000     0          
T        Si     0.286200000000     0.416666666667     0.750000000000     0          
O        O      0.291000000000     0.338000000000     0.789900000000     0          
O        O      0.450550000000     0.344366666667     0.804450000000     0          
O        O      0.253725000000     0.400266666667     0.793050000000     0          
O        O      0.431350000000     0.552566666667     0.522350000000     0          
T        Si     0.250975000000     0.361333333333     0.816250000000     0          
T        Si     0.428400000000     0.511333333333     0.509500000000     0          
O        O      0.459000000000     0.662000000000     0.539900000000     0          
O        O      0.299450000000     0.655633333333     0.554450000000     0          
O        O      0.496275000000     0.599733333333     0.543050000000     0          
O        O      0.318650000000     0.447433333333     0.772350000000     0          
T        Si     0.499025000000     0.638666666667     0.566250000000     0          
T        Si     0.321600000000     0.488666666667     0.759500000000     0          
O        O      0.459000000000     0.838000000000     0.289900000000     0          
O        O      0.299450000000     0.844366666667     0.304450000000     0          
O        O      0.496275000000     0.900266666667     0.293050000000     0          
O        O      0.489650000000     0.862866666667     0.375000000000     0          
O        O      0.318650000000     0.719233333333     0.022350000000     0          
O        O      0.375000000000     0.666666666667     0.000000000000     0          
T        Si     0.499025000000     0.861333333333     0.316250000000     0          
T        Si     0.321600000000     0.678000000000     0.009500000000     0          
T        Si     0.286200000000     0.750000000000     0.000000000000     0          
O        O      0.291000000000     0.828666666667     0.039900000000     0          
O        O      0.450550000000     0.822300000000     0.054450000000     0          
O        O      0.253725000000     0.766400000000     0.043050000000     0          
O        O      0.260350000000     0.803800000000     0.125000000000     0          
O        O      0.431350000000     0.947433333333     0.272350000000     0          
O        O      0.375000000000     0.666666666667     0.250000000000     0          
T        Si     0.250975000000     0.805333333333     0.066250000000     0          
T        Si     0.428400000000     0.988666666667     0.259500000000     0          
T        Si     0.463800000000     0.916666666667     0.250000000000     0          
O        O      0.459000000000     0.995333333333     0.210100000000     0          
O        O      0.299450000000     0.988966666667     0.195550000000     0          
O        O      0.496275000000     0.933066666667     0.206950000000     0          
O        O      0.489650000000     0.970466666667     0.125000000000     0          
O        O      0.318650000000     0.780766666667     0.477650000000     0          
O        O      0.375000000000     0.833333333333     0.000000000000     0          
T        Si     0.499025000000     0.972000000000     0.183750000000     0          
T        Si     0.321600000000     0.822000000000     0.490500000000     0          
O        O      0.291000000000     0.671333333333     0.460100000000     0          
O        O      0.450550000000     0.677700000000     0.445550000000     0          
O        O      0.253725000000     0.733600000000     0.456950000000     0          
O        O      0.260350000000     0.696200000000     0.375000000000     0          
O        O      0.431350000000     0.885900000000     0.227650000000     0          
O        O      0.375000000000     0.833333333333     0.250000000000     0          
T        Si     0.250975000000     0.694666666667     0.433750000000     0          
T        Si     0.428400000000     0.844666666667     0.240500000000     0          
O        O      0.291000000000     0.828666666667     0.210100000000     0          
O        O      0.450550000000     0.822300000000     0.195550000000     0          
O        O      0.253725000000     0.766400000000     0.206950000000     0          
O        O      0.431350000000     0.947433333333     0.477650000000     0          
T        Si     0.250975000000     0.805333333333     0.183750000000     0          
T        Si     0.428400000000     0.988666666667     0.490500000000     0          
T        Si     0.463800000000     0.916666666667     0.000000000000     0          
O        O      0.459000000000     0.838000000000     0.460100000000     0          
O        O      0.299450000000     0.844366666667     0.445550000000     0          
O        O      0.496275000000     0.900266666667     0.456950000000     0          
O        O      0.318650000000     0.719233333333     0.227650000000     0          
T        Si     0.499025000000     0.861333333333     0.433750000000     0          
T        Si     0.321600000000     0.678000000000     0.240500000000     0          
T        Si     0.286200000000     0.750000000000     0.250000000000     0          
O        O      0.291000000000     0.671333333333     0.289900000000     0          
O        O      0.450550000000     0.677700000000     0.304450000000     0          
O        O      0.253725000000     0.733600000000     0.293050000000     0          
O        O      0.431350000000     0.885900000000     0.022350000000     0          
T        Si     0.250975000000     0.694666666667     0.316250000000     0          
T        Si     0.428400000000     0.844666666667     0.009500000000     0          
O        O      0.459000000000     0.995333333333     0.039900000000     0          
O        O      0.299450000000     0.988966666667     0.054450000000     0          
O        O      0.496275000000     0.933066666667     0.043050000000     0          
O        O      0.318650000000     0.780766666667     0.272350000000     0          
T        Si     0.499025000000     0.972000000000     0.066250000000     0          
T        Si     0.321600000000     0.822000000000     0.259500000000     0          
O        O      0.459000000000     0.838000000000     0.789900000000     0          
O        O      0.299450000000     0.844366666667     0.804450000000     0          
O        O      0.496275000000     0.900266666667     0.793050000000     0          
O        O      0.489650000000     0.862866666667     0.875000000000     0          
O        O      0.318650000000     0.719233333333     0.522350000000     0          
O        O      0.375000000000     0.666666666667     0.500000000000     0          
T        Si     0.499025000000     0.861333333333     0.816250000000     0          
T        Si     0.321600000000     0.678000000000     0.509500000000     0          
T        Si     0.286200000000     0.750000000000     0.500000000000     0          
O        O      0.291000000000     0.828666666667     0.539900000000     0          
O        O      0.450550000000     0.822300000000     0.554450000000     0          
O        O      0.253725000000     0.766400000000     0.543050000000     0          
O        O      0.260350000000     0.803800000000     0.625000000000     0          
O        O      0.431350000000     0.947433333333     0.772350000000     0          
O        O      0.375000000000     0.666666666667     0.750000000000     0          
T        Si     0.250975000000     0.805333333333     0.566250000000     0          
T        Si     0.428400000000     0.988666666667     0.759500000000     0          
T        Si     0.463800000000     0.916666666667     0.750000000000     0          
O        O      0.459000000000     0.995333333333     0.710100000000     0          
O        O      0.299450000000     0.988966666667     0.695550000000     0          
O        O      0.496275000000     0.933066666667     0.706950000000     0          
O        O      0.489650000000     0.970466666667     0.625000000000     0          
O        O      0.318650000000     0.780766666667     0.977650000000     0          
O        O      0.375000000000     0.833333333333     0.500000000000     0          
T        Si     0.499025000000     0.972000000000     0.683750000000     0          
T        Si     0.321600000000     0.822000000000     0.990500000000     0          
O        O      0.291000000000     0.671333333333     0.960100000000     0          
O        O      0.450550000000     0.677700000000     0.945550000000     0          
O        O      0.253725000000     0.733600000000     0.956950000000     0          
O        O      0.260350000000     0.696200000000     0.875000000000     0          
O        O      0.431350000000     0.885900000000     0.727650000000     0          
O        O      0.375000000000     0.833333333333     0.750000000000     0          
T        Si     0.250975000000     0.694666666667     0.933750000000     0          
T        Si     0.428400000000     0.844666666667     0.740500000000     0          
O        O      0.291000000000     0.828666666667     0.710100000000     0          
O        O      0.450550000000     0.822300000000     0.695550000000     0          
O        O      0.253725000000     0.766400000000     0.706950000000     0          
O        O      0.431350000000     0.947433333333     0.977650000000     0          
T        Si     0.250975000000     0.805333333333     0.683750000000     0          
T        Si     0.428400000000     0.988666666667     0.990500000000     0          
T        Si     0.463800000000     0.916666666667     0.500000000000     0          
O        O      0.459000000000     0.838000000000     0.960100000000     0          
O        O      0.299450000000     0.844366666667     0.945550000000     0          
O        O      0.496275000000     0.900266666667     0.956950000000     0          
O        O      0.318650000000     0.719233333333     0.727650000000     0          
T        Si     0.499025000000     0.861333333333     0.933750000000     0          
T        Si     0.321600000000     0.678000000000     0.740500000000     0          
T        Si     0.286200000000     0.750000000000     0.750000000000     0          
O        O      0.291000000000     0.671333333333     0.789900000000     0          
O        O      0.450550000000     0.677700000000     0.804450000000     0          
O        O      0.253725000000     0.733600000000     0.793050000000     0          
O        O      0.431350000000     0.885900000000     0.522350000000     0          
T        Si     0.250975000000     0.694666666667     0.816250000000     0          
T        Si     0.428400000000     0.844666666667     0.509500000000     0          
O        O      0.459000000000     0.995333333333     0.539900000000     0          
O        O      0.299450000000     0.988966666667     0.554450000000     0          
O        O      0.496275000000     0.933066666667     0.543050000000     0          
O        O      0.318650000000     0.780766666667     0.772350000000     0          
T        Si     0.499025000000     0.972000000000     0.566250000000     0          
T        Si     0.321600000000     0.822000000000     0.759500000000     0          
O        O      0.709000000000     0.171333333333     0.289900000000     0          
O        O      0.549450000000     0.177700000000     0.304450000000     0          
O        O      0.746275000000     0.233600000000     0.293050000000     0          
O        O      0.739650000000     0.196200000000     0.375000000000     0          
O        O      0.568650000000     0.052566666667     0.022350000000     0          
O        O      0.625000000000     0.000000000000     0.000000000000     0          
T        Si     0.749025000000     0.194666666667     0.316250000000     0          
T        Si     0.571600000000     0.011333333333     0.009500000000     0          
T        Si     0.536200000000     0.083333333333     0.000000000000     0          
O        O      0.541000000000     0.162000000000     0.039900000000     0          
O        O      0.700550000000     0.155633333333     0.054450000000     0          
O        O      0.503725000000     0.099733333333     0.043050000000     0          
O        O      0.510350000000     0.137133333333     0.125000000000     0          
O        O      0.681350000000     0.280766666667     0.272350000000     0          
O        O      0.625000000000     0.000000000000     0.250000000000     0          
T        Si     0.500975000000     0.138666666667     0.066250000000     0          
T        Si     0.678400000000     0.322000000000     0.259500000000     0          
T        Si     0.713800000000     0.250000000000     0.250000000000     0          
O        O      0.709000000000     0.328666666667     0.210100000000     0          
O        O      0.549450000000     0.322300000000     0.195550000000     0          
O        O      0.746275000000     0.266400000000     0.206950000000     0          
O        O      0.739650000000     0.303800000000     0.125000000000     0          
O        O      0.568650000000     0.114100000000     0.477650000000     0          
O        O      0.625000000000     0.166666666667     0.000000000000     0          
T        Si     0.749025000000     0.305333333333     0.183750000000     0          
T        Si     0.571600000000     0.155333333333     0.490500000000     0          
O        O      0.541000000000     0.004666666667     0.460100000000     0          
O        O      0.700550000000     0.011033333333     0.445550000000     0          
O        O      0.503725000000     0.066933333333     0.456950000000     0          
O        O      0.510350000000     0.029533333333     0.375000000000     0          
O        O      0.681350000000     0.219233333333     0.227650000000     0          
O        O      0.625000000000     0.166666666667     0.250000000000     0          
T        Si     0.500975000000     0.028000000000     0.433750000000     0          
T        Si     0.678400000000     0.178000000000     0.240500000000     0          
O        O      0.541000000000     0.162000000000     0.210100000000     0          
O        O      0.700550000000     0.155633333333     0.195550000000     0          
O        O      0.503725000000     0.099733333333     0.206950000000     0          
O        O      0.681350000000     0.280766666667     0.477650000000     0          
T        Si     0.500975000000     0.138666666667     0.183750000000     0          
T        Si     0.678400000000     0.322000000000     0.490500000000     0          
T        Si     0.713800000000     0.250000000000     0.000000000000     0          
O        O      0.709000000000     0.171333333333     0.460100000000     0          
O        O      0.549450000000     0.177700000000     0.445550000000     0          
O        O      0.746275000000     0.233600000000     0.456950000000     0          
O        O      0.568650000000     0.052566666667     0.227650000000     0          
T        Si     0.749025000000     0.194666666667     0.433750000000     0          
T        Si     0.571600000000     0.011333333333     0.240500000000     0          
T        Si     0.536200000000     0.083333333333     0.250000000000     0          
O        O      0.541000000000     0.004666666667     0.289900000000     0          
O        O      0.700550000000     0.011033333333     0.304450000000     0          
O        O      0.503725000000     0.066933333333     0.293050000000     0          
O        O      0.681350000000     0.219233333333     0.022350000000     0          
T        Si     0.500975000000     0.028000000000     0.316250000000     0          
T        Si     0.678400000000     0.178000000000     0.009500000000     0          
O        O      0.709000000000     0.328666666667     0.039900000000     0          
O        O      0.549450000000     0.322300000000     0.054450000000     0          
O        O      0.746275000000     0.266400000000     0.043050000000     0          
O        O      0.568650000000     0.114100000000     0.272350000000     0          
T        Si     0.749025000000     0.305333333333     0.066250000000     0          
T        Si     0.571600000000     0.155333333333     0.259500000000     0          
O        O      0.709000000000     0.171333333333     0.789900000000     0          
O        O      0.549450000000     0.177700000000     0.804450000000     0          
O        O      0.746275000000     0.233600000000     0.793050000000     0          
O        O      0.739650000000     0.196200000000     0.875000000000     0          
O        O      0.568650000000     0.052566666667     0.522350000000     0          
O        O      0.625000000000     0.000000000000     0.500000000000     0          
T        Si     0.749025000000     0.194666666667     0.816250000000     0          
T        Si     0.571600000000     0.011333333333     0.509500000000     0          
T        Si     0.536200000000     0.083333333333     0.500000000000     0          
O        O      0.541000000000     0.162000000000     0.539900000000     0          
O        O      0.700550000000     0.155633333333     0.554450000000     0          
O        O      0.503725000000     0.099733333333     0.543050000000     0          
O        O      0.510350000000     0.137133333333     0.625000000000     0          
O        O      0.681350000000     0.280766666667     0.772350000000     0          
O        O      0.625000000000     0.000000000000     0.750000000000     0          
T        Si     0.500975000000     0.138666666667     0.566250000000     0          
T        Si     0.678400000000     0.322000000000     0.759500000000     0          
T        Si     0.713800000000     0.250000000000     0.750000000000     0          
O        O      0.709000000000     0.328666666667     0.710100000000     0          
O        O      0.549450000000     0.322300000000     0.695550000000     0          
O        O      0.746275000000     0.266400000000     0.706950000000     0          
O        O      0.739650000000     0.303800000000     0.625000000000     0          
O        O      0.568650000000     0.114100000000     0.977650000000     0          
O        O      0.625000000000     0.166666666667     0.500000000000     0          
T        Si     0.749025000000     0.305333333333     0.683750000000     0          
T        Si     0.571600000000     0.155333333333     0.990500000000     0          
O        O      0.541000000000     0.004666666667     0.960100000000     0          
O        O      0.700550000000     0.011033333333     0.945550000000     0          
O        O      0.503725000000     0.066933333333     0.956950000000     0          
O        O      0.510350000000     0.029533333333     0.875000000000     0          
O        O      0.681350000000     0.219233333333     0.727650000000     0          
O        O      0.625000000000     0.166666666667     0.750000000000     0          
T        Si     0.500975000000     0.028000000000     0.933750000000     0          
T        Si     0.678400000000     0.178000000000     0.740500000000     0          
O        O      0.541000000000     0.162000000000     0.710100000000     0          
O        O      0.700550000000     0.155633333333     0.695550000000     0          
O        O      0.503725000000     0.099733333333     0.706950000000     0          
O        O      0.681350000000     0.280766666667     0.977650000000     0          
T        Si     0.500975000000     0.138666666667     0.683750000000     0          
T        Si     0.678400000000     0.322000000000     0.990500000000     0          
T        Si     0.713800000000     0.250000000000     0.500000000000     0          
O        O      0.709000000000     0.171333333333     0.960100000000     0          
O        O      0.549450000000     0.177700000000     0.945550000000     0          
O        O      0.746275000000     0.233600000000     0.956950000000     0          
O        O      0.568650000000     0.052566666667     0.727650000000     0          
T        Si     0.749025000000     0.194666666667     0.933750000000     0          
T        Si     0.571600000000     0.011333333333     0.740500000000     0          
T        Si     0.536200000000     0.083333333333     0.750000000000     0          
O        O      0.541000000000     0.004666666667     0.789900000000     0          
O        O      0.700550000000     0.011033333333     0.804450000000     0          
O        O      0.503725000000     0.066933333333     0.793050000000     0          
O        O      0.681350000000     0.219233333333     0.522350000000     0          
T        Si     0.500975000000     0.028000000000     0.816250000000     0          
T        Si     0.678400000000     0.178000000000     0.509500000000     0          
O        O      0.709000000000     0.328666666667     0.539900000000     0          
O        O      0.549450000000     0.322300000000     0.554450000000     0          
O        O      0.746275000000     0.266400000000     0.543050000000     0          
O        O      0.568650000000     0.114100000000     0.772350000000     0          
T        Si     0.749025000000     0.305333333333     0.566250000000     0          
T        Si     0.571600000000     0.155333333333     0.759500000000     0          
O        O      0.709000000000     0.504666666667     0.289900000000     0          
O        O      0.549450000000     0.511033333333     0.304450000000     0          
O        O      0.746275000000     0.566933333333     0.293050000000     0          
O        O      0.739650000000     0.529533333333     0.375000000000     0          
O        O      0.568650000000     0.385900000000     0.022350000000     0          
O        O      0.625000000000     0.333333333333     0.000000000000     0          
T        Si     0.749025000000     0.528000000000     0.316250000000     0          
T        Si     0.571600000000     0.344666666667     0.009500000000     0          
T        Si     0.536200000000     0.416666666667     0.000000000000     0          
O        O      0.541000000000     0.495333333333     0.039900000000     0          
O        O      0.700550000000     0.488966666667     0.054450000000     0          
O        O      0.503725000000     0.433066666667     0.043050000000     0          
O        O      0.510350000000     0.470466666667     0.125000000000     0          
O        O      0.681350000000     0.614100000000     0.272350000000     0          
O        O      0.625000000000     0.333333333333     0.250000000000     0          
T        Si     0.500975000000     0.472000000000     0.066250000000     0          
T        Si     0.678400000000     0.655333333333     0.259500000000     0          
T        Si     0.713800000000     0.583333333333     0.250000000000     0          
O        O      0.709000000000     0.662000000000     0.210100000000     0          
O        O      0.549450000000     0.655633333333     0.195550000000     0          
O        O      0.746275000000     0.599733333333     0.206950000000     0          
O        O      0.739650000000     0.637133333333     0.125000000000     0          
O        O      0.568650000000     0.447433333333     0.477650000000     0          
O        O      0.625000000000     0.500000000000     0.000000000000     0          
T        Si     0.749025000000     0.638666666667     0.183750000000     0          
T        Si     0.571600000000     0.488666666667     0.490500000000     0          
O        O      0.541000000000     0.338000000000     0.460100000000     0          
O        O      0.700550000000     0.344366666667     0.445550000000     0          
O        O      0.503725000000     0.400266666667     0.456950000000     0          
O        O      0.510350000000     0.362866666667     0.375000000000     0          
O        O      0.681350000000     0.552566666667     0.227650000000     0          
O        O      0.625000000000     0.500000000000     0.250000000000     0          
T        Si     0.500975000000     0.361333333333     0.433750000000     0          
T        Si     0.678400000000     0.511333333333     0.240500000000     0          
O        O      0.541000000000     0.495333333333     0.210100000000     0          
O        O      0.700550000000     0.488966666667     0.195550000000     0          
O        O      0.503725000000     0.433066666667     0.206950000000     0          
O        O      0.681350000000     0.614100000000     0.477650000000     0          
T        Si     0.500975000000     0.472000000000     0.183750000000     0          
T        Si     0.678400000000     0.655333333333     0.490500000000     0          
T        Si     0.713800000000     0.583333333333     0.000000000000     0          
O        O      0.709000000000     0.504666666667     0.460100000000     0          
O        O      0.549450000000     0.511033333333     0.445550000000     0          
O        O      0.746275000000     0.566933333333     0.456950000000     0          
O        O      0.568650000000     0.385900000000     0.227650000000     0          
T        Si     0.749025000000     0.528000000000     0.433750000000     0          
T        Si     0.571600000000     0.344666666667     0.240500000000     0          
T        Si     0.536200000000     0.416666666667     0.250000000000     0          
O        O      0.541000000000     0.338000000000     0.289900000000     0          
O        O      0.700550000000     0.344366666667     0.304450000000     0          
O        O      0.503725000000     0.400266666667     0.293050000000     0          
O        O      0.681350000000     0.552566666667     0.022350000000     0          
T        Si     0.500975000000     0.361333333333     0.316250000000     0          
T        Si     0.678400000000     0.511333333333     0.009500000000     0          
O        O      0.709000000000     0.662000000000     0.039900000000     0          
O        O      0.549450000000     0.655633333333     0.054450000000     0          
O        O      0.746275000000     0.599733333333     0.043050000000     0          
O        O      0.568650000000     0.447433333333     0.272350000000     0          
T        Si     0.749025000000     0.638666666667     0.066250000000     0          
T        Si     0.571600000000     0.488666666667     0.259500000000     0          
O        O      0.709000000000     0.504666666667     0.789900000000     0          
O        O      0.549450000000     0.511033333333     0.804450000000     0          
O        O      0.746275000000     0.566933333333     0.793050000000     0          
O        O      0.739650000000     0.529533333333     0.875000000000     0          
O        O      0.568650000000     0.385900000000     0.522350000000     0          
O        O      0.625000000000     0.333333333333     0.500000000000     0          
T        Si     0.749025000000     0.528000000000     0.816250000000     0          
T        Si     0.571600000000     0.344666666667     0.509500000000     0          
T        Si     0.536200000000     0.416666666667     0.500000000000     0          
O        O      0.541000000000     0.495333333333     0.539900000000     0          
O        O      0.700550000000     0.488966666667     0.554450000000     0          
O        O      0.503725000000     0.433066666667     0.543050000000     0          
O        O      0.510350000000     0.470466666667     0.625000000000     0          
O        O      0.681350000000     0.614100000000     0.772350000000     0          
O        O      0.625000000000     0.333333333333     0.750000000000     0          
T        Si     0.500975000000     0.472000000000     0.566250000000     0          
T        Si     0.678400000000     0.655333333333     0.759500000000     0          
T        Si     0.713800000000     0.583333333333     0.750000000000     0          
O        O      0.709000000000     0.662000000000     0.710100000000     0          
O        O      0.549450000000     0.655633333333     0.695550000000     0          
O        O      0.746275000000     0.599733333333     0.706950000000     0          
O        O      0.739650000000     0.637133333333     0.625000000000     0          
O        O      0.568650000000     0.447433333333     0.977650000000     0          
O        O      0.625000000000     0.500000000000     0.500000000000     0          
T        Si     0.749025000000     0.638666666667     0.683750000000     0          
T        Si     0.571600000000     0.488666666667     0.990500000000     0          
O        O      0.541000000000     0.338000000000     0.960100000000     0          
O        O      0.700550000000     0.344366666667     0.945550000000     0          
O        O      0.503725000000     0.400266666667     0.956950000000     0          
O        O      0.510350000000     0.362866666667     0.875000000000     0          
O        O      0.681350000000     0.552566666667     0.727650000000     0          
O        O      0.625000000000     0.500000000000     0.750000000000     0          
T        Si     0.500975000000     0.361333333333     0.933750000000     0          
T        Si     0.678400000000     0.511333333333     0.740500000000     0          
O        O      0.541000000000     0.495333333333     0.710100000000     0          
O        O      0.700550000000     0.488966666667     0.695550000000     0          
O        O      0.503725000000     0.433066666667     0.706950000000     0          
O        O      0.681350000000     0.614100000000     0.977650000000     0          
T        Si     0.500975000000     0.472000000000     0.683750000000     0          
T        Si     0.678400000000     0.655333333333     0.990500000000     0          
T        Si     0.713800000000     0.583333333333     0.500000000000     0          
O        O      0.709000000000     0.504666666667     0.960100000000     0          
O        O      0.549450000000     0.511033333333     0.945550000000     0          
O        O      0.746275000000     0.566933333333     0.956950000000     0          
O        O      0.568650000000     0.385900000000     0.727650000000     0          
T        Si     0.749025000000     0.528000000000     0.933750000000     0          
T        Si     0.571600000000     0.344666666667     0.740500000000     0          
T        Si     0.536200000000     0.416666666667     0.750000000000     0          
O        O      0.541000000000     0.338000000000     0.789900000000     0          
O        O      0.700550000000     0.344366666667     0.804450000000     0          
O        O      0.503725000000     0.400266666667     0.793050000000     0          
O        O      0.681350000000     0.552566666667     0.522350000000     0          
T        Si     0.500975000000     0.361333333333     0.816250000000     0          
T        Si     0.678400000000     0.511333333333     0.509500000000     0          
O        O      0.709000000000     0.662000000000     0.539900000000     0          
O        O      0.549450000000     0.655633333333     0.554450000000     0          
O        O      0.746275000000     0.599733333333     0.543050000000     0          
O        O      0.568650000000     0.447433333333     0.772350000000     0          
T        Si     0.749025000000     0.638666666667     0.566250000000     0          
T        Si     0.571600000000     0.488666666667     0.759500000000     0          
O        O      0.709000000000     0.838000000000     0.289900000000     0          
O        O      0.549450000000     0.844366666667     0.304450000000     0          
O        O      0.746275000000     0.900266666667     0.293050000000     0          
O        O      0.739650000000     0.862866666667     0.375000000000     0          
O        O      0.568650000000     0.719233333333     0.022350000000     0          
O        O      0.625000000000     0.666666666667     0.000000000000     0          
T        Si     0.749025000000     0.861333333333     0.316250000000     0          
T        Si     0.571600000000     0.678000000000     0.009500000000     0          
T        Si     0.536200000000     0.750000000000     0.000000000000     0          
O        O      0.541000000000     0.828666666667     0.039900000000     0          
O        O      0.700550000000     0.822300000000     0.054450000000     0          
O        O      0.503725000000     0.766400000000     0.043050000000     0          
O        O      0.510350000000     0.803800000000     0.125000000000     0          
O        O      0.681350000000     0.947433333333     0.272350000000     0          
O        O      0.625000000000     0.666666666667     0.250000000000     0          
T        Si     0.500975000000     0.805333333333     0.066250000000     0          
T        Si     0.678400000000     0.988666666667     0.259500000000     0          
T        Si     0.713800000000     0.916666666667     0.250000000000     0          
O        O      0.709000000000     0.995333333333     0.210100000000     0          
O        O      0.549450000000     0.988966666667     0.195550000000     0          
O        O      0.746275000000     0.933066666667     0.206950000000     0          
O        O      0.739650000000     0.970466666667     0.125000000000     0          
O        O      0.568650000000     0.780766666667     0.477650000000     0          
O        O      0.625000000000     0.833333333333     0.000000000000     0          
T        Si     0.749025000000     0.972000000000     0.183750000000     0          
T        Si     0.571600000000     0.822000000000     0.490500000000     0          
O        O      0.541000000000     0.671333333333     0.460100000000     0          
O        O      0.700550000000     0.677700000000     0.445550000000     0          
O        O      0.503725000000     0.733600000000     0.456950000000     0          
O        O      0.510350000000     0.696200000000     0.375000000000     0          
O        O      0.681350000000     0.885900000000     0.227650000000     0          
O        O      0.625000000000     0.833333333333     0.250000000000     0          
T        Si     0.500975000000     0.694666666667     0.433750000000     0          
T        Si     0.678400000000     0.844666666667     0.240500000000     0          
O        O      0.541000000000     0.828666666667     0.210100000000     0          
O        O      0.700550000000     0.822300000000     0.195550000000     0          
O        O      0.503725000000     0.766400000000     0.206950000000     0          
O        O      0.681350000000     0.947433333333     0.477650000000     0          
T        Si     0.500975000000     0.805333333333     0.183750000000     0          
T        Si     0.678400000000     0.988666666667     0.490500000000     0          
T        Si     0.713800000000     0.916666666667     0.000000000000     0          
O        O      0.709000000000     0.838000000000     0.460100000000     0          
O        O      0.549450000000     0.844366666667     0.445550000000     0          
O        O      0.746275000000     0.900266666667     0.456950000000     0          
O        O      0.568650000000     0.719233333333     0.227650000000     0          
T        Si     0.749025000000     0.861333333333     0.433750000000     0          
T        Si     0.571600000000     0.678000000000     0.240500000000     0          
T        Si     0.536200000000     0.750000000000     0.250000000000     0          
O        O      0.541000000000     0.671333333333     0.289900000000     0          
O        O      0.700550000000     0.677700000000     0.304450000000     0          
O        O      0.503725000000     0.733600000000     0.293050000000     0          
O        O      0.681350000000     0.885900000000     0.022350000000     0          
T        Si     0.500975000000     0.694666666667     0.316250000000     0          
T        Si     0.678400000000     0.844666666667     0.009500000000     0          
O        O      0.709000000000     0.995333333333     0.039900000000     0          
O        O      0.549450000000     0.988966666667     0.054450000000     0          
O        O      0.746275000000     0.933066666667     0.043050000000     0          
O        O      0.568650000000     0.780766666667     0.272350000000     0          
T        Si     0.749025000000     0.972000000000     0.066250000000     0          
T        Si     0.571600000000     0.822000000000     0.259500000000     0          
O        O      0.709000000000     0.838000000000     0.789900000000     0          
O        O      0.549450000000     0.844366666667     0.804450000000     0          
O        O      0.746275000000     0.900266666667     0.793050000000     0          
O        O      0.739650000000     0.862866666667     0.875000000000     0          
O        O      0.568650000000     0.719233333333     0.522350000000     0          
O        O      0.625000000000     0.666666666667     0.500000000000     0          
T        Si     0.749025000000     0.861333333333     0.816250000000     0          
T        Si     0.571600000000     0.678000000000     0.509500000000     0          
T        Si     0.536200000000     0.750000000000     0.500000000000     0          
O        O      0.541000000000     0.828666666667     0.539900000000     0          
O        O      0.700550000000     0.822300000000     0.554450000000     0          
O        O      0.503725000000     0.766400000000     0.543050000000     0          
O        O      0.510350000000     0.803800000000     0.625000000000     0          
O        O      0.681350000000     0.947433333333     0.772350000000     0          
O        O      0.625000000000     0.666666666667     0.750000000000     0          
T        Si     0.500975000000     0.805333333333     0.566250000000     0          
T        Si     0.678400000000     0.988666666667     0.759500000000     0          
T        Si     0.713800000000     0.916666666667     0.750000000000     0          
O        O      0.709000000000     0.995333333333     0.710100000000     0          
O        O      0.549450000000     0.988966666667     0.695550000000     0          
O        O      0.746275000000     0.933066666667     0.706950000000     0          
O        O      0.739650000000     0.970466666667     0.625000000000     0          
O        O      0.568650000000     0.780766666667     0.977650000000     0          
O        O      0.625000000000     0.833333333333     0.500000000000     0          
T        Si     0.749025000000     0.972000000000     0.683750000000     0          
T        Si     0.571600000000     0.822000000000     0.990500000000     0          
O        O      0.541000000000     0.671333333333     0.960100000000     0          
O        O      0.700550000000     0.677700000000     0.945550000000     0          
O        O      0.503725000000     0.733600000000     0.956950000000     0          
O        O      0.510350000000     0.696200000000     0.875000000000     0          
O        O      0.681350000000     0.885900000000     0.727650000000     0          
O        O      0.625000000000     0.833333333333     0.750000000000     0          
T        Si     0.500975000000     0.694666666667     0.933750000000     0          
T        Si     0.678400000000     0.844666666667     0.740500000000     0          
O        O      0.541000000000     0.828666666667     0.710100000000     0          
O        O      0.700550000000     0.822300000000     0.695550000000     0          
O        O      0.503725000000     0.766400000000     0.706950000000     0          
O        O      0.681350000000     0.947433333333     0.977650000000     0          
T        Si     0.500975000000     0.805333333333     0.683750000000     0          
T        Si     0.678400000000     0.988666666667     0.990500000000     0          
T        Si     0.713800000000     0.916666666667     0.500000000000     0          
O        O      0.709000000000     0.838000000000     0.960100000000     0          
O        O      0.549450000000     0.844366666667     0.945550000000     0          
O        O      0.746275000000     0.900266666667     0.956950000000     0          
O        O      0.568650000000     0.719233333333     0.727650000000     0          
T        Si     0.749025000000     0.861333333333     0.933750000000     0          
T        Si     0.571600000000     0.678000000000     0.740500000000     0          
T        Si     0.536200000000     0.750000000000     0.750000000000     0          
O        O      0.541000000000     0.671333333333     0.789900000000     0          
O        O      0.700550000000     0.677700000000     0.804450000000     0          
O        O      0.503725000000     0.733600000000     0.793050000000     0          
O        O      0.681350000000     0.885900000000     0.522350000000     0          
T        Si     0.500975000000     0.694666666667     0.816250000000     0          
T        Si     0.678400000000     0.844666666667     0.509500000000     0          
O        O      0.709000000000     0.995333333333     0.539900000000     0          
O        O      0.549450000000     0.988966666667     0.554450000000     0          
O        O      0.746275000000     0.933066666667     0.543050000000     0          
O        O      0.568650000000     0.780766666667     0.772350000000     0          
T        Si     0.749025000000     0.972000000000     0.566250000000     0          
T        Si     0.571600000000     0.822000000000     0.759500000000     0          
O        O      0.959000000000     0.171333333333     0.289900000000     0          
O        O      0.799450000000     0.177700000000     0.304450000000     0          
O        O      0.996275000000     0.233600000000     0.293050000000     0          
O        O      0.989650000000     0.196200000000     0.375000000000     0          
O        O      0.818650000000     0.052566666667     0.022350000000     0          
O        O      0.875000000000     0.000000000000     0.000000000000     0          
T        Si     0.999025000000     0.194666666667     0.316250000000     0          
T        Si     0.821600000000     0.011333333333     0.009500000000     0          
T        Si     0.786200000000     0.083333333333     0.000000000000     0          
O        O      0.791000000000     0.162000000000     0.039900000000     0          
O        O      0.950550000000     0.155633333333     0.054450000000     0          
O        O      0.753725000000     0.099733333333     0.043050000000     0          
O        O      0.760350000000     0.137133333333     0.125000000000     0          
O        O      0.931350000000     0.280766666667     0.272350000000     0          
O        O      0.875000000000     0.000000000000     0.250000000000     0          
T        Si     0.750975000000     0.138666666667     0.066250000000     0          
T        Si     0.928400000000     0.322000000000     0.259500000000     0          
T        Si     0.963800000000     0.250000000000     0.250000000000     0          
O        O      0.959000000000     0.328666666667     0.210100000000     0          
O        O      0.799450000000     0.322300000000     0.195550000000     0          
O        O      0.996275000000     0.266400000000     0.206950000000     0          
O        O      0.989650000000     0.303800000000     0.125000000000     0          
O        O      0.818650000000     0.114100000000     0.477650000000     0          
O        O      0.875000000000     0.166666666667     0.000000000000     0          
T        Si     0.999025000000     0.305333333333     0.183750000000     0          
T        Si     0.821600000000     0.155333333333     0.490500000000     0          
O        O      0.791000000000     0.004666666667     0.460100000000     0          
O        O      0.950550000000     0.011033333333     0.445550000000     0          
O        O      0.753725000000     0.066933333333     0.456950000000     0          
O        O      0.760350000000     0.029533333333     0.375000000000     0          
O        O      0.931350000000     0.219233333333     0.227650000000     0          
O        O      0.875000000000     0.166666666667     0.250000000000     0          
T        Si     0.750975000000     0.028000000000     0.433750000000     0          
T        Si     0.928400000000     0.178000000000     0.240500000000     0          
O        O      0.791000000000     0.162000000000     0.210100000000     0          
O        O      0.950550000000     0.155633333333     0.195550000000     0          
O        O      0.753725000000     0.099733333333     0.206950000000     0          
O        O      0.931350000000     0.280766666667     0.477650000000     0          
T        Si     0.750975000000     0.138666666667     0.183750000000     0          
T        Si     0.928400000000     0.322000000000     0.490500000000     0          
T        Si     0.963800000000     0.250000000000     0.000000000000     0          
O        O      0.959000000000     0.171333333333     0.460100000000     0          
O        O      0.799450000000     0.177700000000     0.445550000000     0          
O        O      0.996275000000     0.233600000000     0.456950000000     0          
O        O      0.818650000000     0.052566666667     0.227650000000     0          
T        Si     0.999025000000     0.194666666667     0.433750000000     0          
T        Si     0.821600000000     0.011333333333     0.240500000000     0          
T        Si     0.786200000000     0.083333333333     0.250000000000     0          
O        O      0.791000000000     0.004666666667     0.289900000000     0          
O        O      0.950550000000     0.011033333333     0.304450000000     0          
O        O      0.753725000000     0.066933333333     0.293050000000     0          
O        O      0.931350000000     0.219233333333     0.022350000000     0          
T        Si     0.750975000000     0.028000000000     0.316250000000     0          
T        Si     0.928400000000     0.178000000000     0.009500000000     0          
O        O      0.959000000000     0.328666666667     0.039900000000     0          
O        O      0.799450000000     0.322300000000     0.054450000000     0          
O        O      0.996275000000     0.266400000000     0.043050000000     0          
O        O      0.818650000000     0.114100000000     0.272350000000     0          
T        Si     0.999025000000     0.305333333333     0.066250000000     0          
T        Si     0.821600000000     0.155333333333     0.259500000000     0          
O        O      0.959000000000     0.171333333333     0.789900000000     0          
O        O      0.799450000000     0.177700000000     0.804450000000     0          
O        O      0.996275000000     0.233600000000     0.793050000000     0          
O        O      0.989650000000     0.196200000000     0.875000000000     0          
O        O      0.818650000000     0.052566666667     0.522350000000     0          
O        O      0.875000000000     0.000000000000     0.500000000000     0          
T        Si     0.999025000000     0.194666666667     0.816250000000     0          
T        Si     0.821600000000     0.011333333333     0.509500000000     0          
T        Si     0.786200000000     0.083333333333     0.500000000000     0          
O        O      0.791000000000     0.162000000000     0.539900000000     0          
O        O      0.950550000000     0.155633333333     0.554450000000     0          
O        O      0.753725000000     0.099733333333     0.543050000000     0          
O        O      0.760350000000     0.137133333333     0.625000000000     0          
O        O      0.931350000000     0.280766666667     0.772350000000     0          
O        O      0.875000000000     0.000000000000     0.750000000000     0          
T        Si     0.750975000000     0.138666666667     0.566250000000     0          
T        Si     0.928400000000     0.322000000000     0.759500000000     0          
T        Si     0.963800000000     0.250000000000     0.750000000000     0          
O        O      0.959000000000     0.328666666667     0.710100000000     0          
O        O      0.799450000000     0.322300000000     0.695550000000     0          
O        O      0.996275000000     0.266400000000     0.706950000000     0          
O        O      0.989650000000     0.303800000000     0.625000000000     0          
O        O      0.818650000000     0.114100000000     0.977650000000     0          
O        O      0.875000000000     0.166666666667     0.500000000000     0          
T        Si     0.999025000000     0.305333333333     0.683750000000     0          
T        Si     0.821600000000     0.155333333333     0.990500000000     0          
O        O      0.791000000000     0.004666666667     0.960100000000     0          
O        O      0.950550000000     0.011033333333     0.945550000000     0          
O        O      0.753725000000     0.066933333333     0.956950000000     0          
O        O      0.760350000000     0.029533333333     0.875000000000     0          
O        O      0.931350000000     0.219233333333     0.727650000000     0          
O        O      0.875000000000     0.166666666667     0.750000000000     0          
T        Si     0.750975000000     0.028000000000     0.933750000000     0          
T        Si     0.928400000000     0.178000000000     0.740500000000     0          
O        O      0.791000000000     0.162000000000     0.710100000000     0          
O        O      0.950550000000     0.155633333333     0.695550000000     0          
O        O      0.753725000000     0.099733333333     0.706950000000     0          
O        O      0.931350000000     0.280766666667     0.977650000000     0          
T        Si     0.750975000000     0.138666666667     0.683750000000     0          
T        Si     0.928400000000     0.322000000000     0.990500000000     0          
T        Si     0.963800000000     0.250000000000     0.500000000000     0          
O        O      0.959000000000     0.171333333333     0.960100000000     0          
O        O      0.799450000000     0.177700000000     0.945550000000     0          
O        O      0.996275000000     0.233600000000     0.956950000000     0          
O        O      0.818650000000     0.052566666667     0.727650000000     0          
T        Si     0.999025000000     0.194666666667     0.933750000000     0          
T        Si     0.821600000000     0.011333333333     0.740500000000     0          
T        Si     0.786200000000     0.083333333333     0.750000000000     0          
O        O      0.791000000000     0.004666666667     0.789900000000     0          
O        O      0.950550000000     0.011033333333     0.804450000000     0          
O        O      0.753725000000     0.066933333333     0.793050000000     0          
O        O      0.931350000000     0.219233333333     0.522350000000     0          
T        Si     0.750975000000     0.028000000000     0.816250000000     0          
T        Si     0.928400000000     0.178000000000     0.509500000000     0          
O        O      0.959000000000     0.328666666667     0.539900000000     0          
O        O      0.799450000000     0.322300000000     0.554450000000     0          
O        O      0.996275000000     0.266400000000     0.543050000000     0          
O        O      0.818650000000     0.114100000000     0.772350000000     0          
T        Si     0.999025000000     0.305333333333     0.566250000000     0          
T        Si     0.821600000000     0.155333333333     0.759500000000     0          
O        O      0.959000000000     0.504666666667     0.289900000000     0          
O        O      0.799450000000     0.511033333333     0.304450000000     0          
O        O      0.996275000000     0.566933333333     0.293050000000     0          
O        O      0.989650000000     0.529533333333     0.375000000000     0          
O        O      0.818650000000     0.385900000000     0.022350000000     0          
O        O      0.875000000000     0.333333333333     0.000000000000     0          
T        Si     0.999025000000     0.528000000000     0.316250000000     0          
T        Si     0.821600000000     0.344666666667     0.009500000000     0          
T        Si     0.786200000000     0.416666666667     0.000000000000     0          
O        O      0.791000000000     0.495333333333     0.039900000000     0          
O        O      0.950550000000     0.488966666667     0.054450000000     0          
O        O      0.753725000000     0.433066666667     0.043050000000     0          
O        O      0.760350000000     0.470466666667     0.125000000000     0          
O        O      0.931350000000     0.614100000000     0.272350000000     0          
O        O      0.875000000000     0.333333333333     0.250000000000     0          
T        Si     0.750975000000     0.472000000000     0.066250000000     0          
T        Si     0.928400000000     0.655333333333     0.259500000000     0          
T        Si     0.963800000000     0.583333333333     0.250000000000     0          
O        O      0.959000000000     0.662000000000     0.210100000000     0          
O        O      0.799450000000     0.655633333333     0.195550000000     0          
O        O      0.996275000000     0.599733333333     0.206950000000     0          
O        O      0.989650000000     0.637133333333     0.125000000000     0          
O        O      0.818650000000     0.447433333333     0.477650000000     0          
O        O      0.875000000000     0.500000000000     0.000000000000     0          
T        Si     0.999025000000     0.638666666667     0.183750000000     0          
T        Si     0.821600000000     0.488666666667     0.490500000000     0          
O        O      0.791000000000     0.338000000000     0.460100000000     0          
O        O      0.950550000000     0.344366666667     0.445550000000     0          
O        O      0.753725000000     0.400266666667     0.456950000000     0          
O        O      0.760350000000     0.362866666667     0.375000000000     0          
O        O      0.931350000000     0.552566666667     0.227650000000     0          
O        O      0.875000000000     0.500000000000     0.250000000000     0          
T        Si     0.750975000000     0.361333333333     0.433750000000     0          
T        Si     0.928400000000     0.511333333333     0.240500000000     0          
O        O      0.791000000000     0.495333333333     0.210100000000     0          
O        O      0.950550000000     0.488966666667     0.195550000000     0          
O        O      0.753725000000     0.433066666667     0.206950000000     0          
O        O      0.931350000000     0.614100000000     0.477650000000     0          
T        Si     0.750975000000     0.472000000000     0.183750000000     0          
T        Si     0.928400000000     0.655333333333     0.490500000000     0          
T        Si     0.963800000000     0.583333333333     0.000000000000     0          
O        O      0.959000000000     0.504666666667     0.460100000000     0          
O        O      0.799450000000     0.511033333333     0.445550000000     0          
O        O      0.996275000000     0.566933333333     0.456950000000     0          
O        O      0.818650000000     0.385900000000     0.227650000000     0          
T        Si     0.999025000000     0.528000000000     0.433750000000     0          
T        Si     0.821600000000     0.344666666667     0.240500000000     0          
T        Si     0.786200000000     0.416666666667     0.250000000000     0          
O        O      0.791000000000     0.338000000000     0.289900000000     0          
O        O      0.950550000000     0.344366666667     0.304450000000     0          
O        O      0.753725000000     0.400266666667     0.293050000000     0          
O        O      0.931350000000     0.552566666667     0.022350000000     0          
T        Si     0.750975000000     0.361333333333     0.316250000000     0          
T        Si     0.928400000000     0.511333333333     0.009500000000     0          
O        O      0.959000000000     0.662000000000     0.039900000000     0          
O        O      0.799450000000     0.655633333333     0.054450000000     0          
O        O      0.996275000000     0.599733333333     0.043050000000     0          
O        O      0.818650000000     0.447433333333     0.272350000000     0          
T        Si     0.999025000000     0.638666666667     0.066250000000     0          
T        Si     0.821600000000     0.488666666667     0.259500000000     0          
O        O      0.959000000000     0.504666666667     0.789900000000     0          
O        O      0.799450000000     0.511033333333     0.804450000000     0          
O        O      0.996275000000     0.566933333333     0.793050000000     0          
O        O      0.989650000000     0.529533333333     0.875000000000     0          
O        O      0.818650000000     0.385900000000     0.522350000000     0          
O        O      0.875000000000     0.333333333333     0.500000000000     0          
T        Si     0.999025000000     0.528000000000     0.816250000000     0          
T        Si     0.821600000000     0.344666666667     0.509500000000     0          
T        Si     0.786200000000     0.416666666667     0.500000000000     0          
O        O      0.791000000000     0.495333333333     0.539900000000     0          
O        O      0.950550000000     0.488966666667     0.554450000000     0          
O        O      0.753725000000     0.433066666667     0.543050000000     0          
O        O      0.760350000000     0.470466666667     0.625000000000     0          
O        O      0.931350000000     0.614100000000     0.772350000000     0          
O        O      0.875000000000     0.333333333333     0.750000000000     0          
T        Si     0.750975000000     0.472000000000     0.566250000000     0          
T        Si     0.928400000000     0.655333333333     0.759500000000     0          
T        Si     0.963800000000     0.583333333333     0.750000000000     0          
O        O      0.959000000000     0.662000000000     0.710100000000     0          
O        O      0.799450000000     0.655633333333     0.695550000000     0          
O        O      0.996275000000     0.599733333333     0.706950000000     0          
O        O      0.989650000000     0.637133333333     0.625000000000     0          
O        O      0.818650000000     0.447433333333     0.977650000000     0          
O        O      0.875000000000     0.500000000000     0.500000000000     0          
T        Si     0.999025000000     0.638666666667     0.683750000000     0          
T        Si     0.821600000000     0.488666666667     0.990500000000     0          
O        O      0.791000000000     0.338000000000     0.960100000000     0          
O        O      0.950550000000     0.344366666667     0.945550000000     0          
O        O      0.753725000000     0.400266666667     0.956950000000     0          
O        O      0.760350000000     0.362866666667     0.875000000000     0          
O        O      0.931350000000     0.552566666667     0.727650000000     0          
O        O      0.875000000000     0.500000000000     0.750000000000     0          
T        Si     0.750975000000     0.361333333333     0.933750000000     0          
T        Si     0.928400000000     0.511333333333     0.740500000000     0          
O        O      0.791000000000     0.495333333333     0.710100000000     0          
O        O      0.950550000000     0.488966666667     0.695550000000     0          
O        O      0.753725000000     0.433066666667     0.706950000000     0          
O        O      0.931350000000     0.614100000000     0.977650000000     0          
T        Si     0.750975000000     0.472000000000     0.683750000000     0          
T        Si     0.928400000000     0.655333333333     0.990500000000     0          
T        Si     0.963800000000     0.583333333333     0.500000000000     0          
O        O      0.959000000000     0.504666666667     0.960100000000     0          
O        O      0.799450000000     0.511033333333     0.945550000000     0          
O        O      0.996275000000     0.566933333333     0.956950000000     0          
O        O      0.818650000000     0.385900000000     0.727650000000     0          
T        Si     0.999025000000     0.528000000000     0.933750000000     0          
T        Si     0.821600000000     0.344666666667     0.740500000000     0          
T        Si     0.786200000000     0.416666666667     0.750000000000     0          
O        O      0.791000000000     0.338000000000     0.789900000000     0          
O        O      0.950550000000     0.344366666667     0.804450000000     0          
O        O      0.753725000000     0.400266666667     0.793050000000     0          
O        O      0.931350000000     0.552566666667     0.522350000000     0          
T        Si     0.750975000000     0.361333333333     0.816250000000     0          
T        Si     0.928400000000     0.511333333333     0.509500000000     0          
O        O      0.959000000000     0.662000000000     0.539900000000     0          
O        O      0.799450000000     0.655633333333     0.554450000000     0          
O        O      0.996275000000     0.599733333333     0.543050000000     0          
O        O      0.818650000000     0.447433333333     0.772350000000     0          
T        Si     0.999025000000     0.638666666667     0.566250000000     0          
T        Si     0.821600000000     0.488666666667     0.759500000000     0          
O        O      0.959000000000     0.838000000000     0.289900000000     0          
O        O      0.799450000000     0.844366666667     0.304450000000     0          
O        O      0.996275000000     0.900266666667     0.293050000000     0          
O        O      0.989650000000     0.862866666667     0.375000000000     0          
O        O      0.818650000000     0.719233333333     0.022350000000     0          
O        O      0.875000000000     0.666666666667     0.000000000000     0          
T        Si     0.999025000000     0.861333333333     0.316250000000     0          
T        Si     0.821600000000     0.678000000000     0.009500000000     0          
T        Si     0.786200000000     0.750000000000     0.000000000000     0          
O        O      0.791000000000     0.828666666667     0.039900000000     0          
O        O      0.950550000000     0.822300000000     0.054450000000     0          
O        O      0.753725000000     0.766400000000     0.043050000000     0          
O        O      0.760350000000     0.803800000000     0.125000000000     0          
O        O      0.931350000000     0.947433333333     0.272350000000     0          
O        O      0.875000000000     0.666666666667     0.250000000000     0          
T        Si     0.750975000000     0.805333333333     0.066250000000     0          
T        Si     0.928400000000     0.988666666667     0.259500000000     0          
T        Si     0.963800000000     0.916666666667     0.250000000000     0          
O        O      0.959000000000     0.995333333333     0.210100000000     0          
O        O      0.799450000000     0.988966666667     0.195550000000     0          
O        O      0.996275000000     0.933066666667     0.206950000000     0          
O        O      0.989650000000     0.970466666667     0.125000000000     0          
O        O      0.818650000000     0.780766666667     0.477650000000     0          
O        O      0.875000000000     0.833333333333     0.000000000000     0          
T        Si     0.999025000000     0.972000000000     0.183750000000     0          
T        Si     0.821600000000     0.822000000000     0.490500000000     0          
O        O      0.791000000000     0.671333333333     0.460100000000     0          
O        O      0.950550000000     0.677700000000     0.445550000000     0          
O        O      0.753725000000     0.733600000000     0.456950000000     0          
O        O      0.760350000000     0.696200000000     0.375000000000     0          
O        O      0.931350000000     0.885900000000     0.227650000000     0          
O        O      0.875000000000     0.833333333333     0.250000000000     0          
T        Si     0.750975000000     0.694666666667     0.433750000000     0          
T        Si     0.928400000000     0.844666666667     0.240500000000     0          
O        O      0.791000000000     0.828666666667     0.210100000000     0          
O        O      0.950550000000     0.822300000000     0.195550000000     0          
O        O      0.753725000000     0.766400000000     0.206950000000     0          
O        O      0.931350000000     0.947433333333     0.477650000000     0          
T        Si     0.750975000000     0.805333333333     0.183750000000     0          
T        Si     0.928400000000     0.988666666667     0.490500000000     0          
T        Si     0.963800000000     0.916666666667     0.000000000000     0          
O        O      0.959000000000     0.838000000000     0.460100000000     0          
O        O      0.799450000000     0.844366666667     0.445550000000     0          
O        O      0.996275000000     0.900266666667     0.456950000000     0          
O        O      0.818650000000     0.719233333333     0.227650000000     0          
T        Si     0.999025000000     0.861333333333     0.433750000000     0          
T        Si     0.821600000000     0.678000000000     0.240500000000     0          
T        Si     0.786200000000     0.750000000000     0.250000000000     0          
O        O      0.791000000000     0.671333333333     0.289900000000     0          
O        O      0.950550000000     0.677700000000     0.304450000000     0          
O        O      0.753725000000     0.733600000000     0.293050000000     0          
O        O      0.931350000000     0.885900000000     0.022350000000     0          
T        Si     0.750975000000     0.694666666667     0.316250000000     0          
T        Si     0.928400000000     0.844666666667     0.009500000000     0          
O        O      0.959000000000     0.995333333333     0.039900000000     0          
O        O      0.799450000000     0.988966666667     0.054450000000     0          
O        O      0.996275000000     0.933066666667     0.043050000000     0          
O        O      0.818650000000     0.780766666667     0.272350000000     0          
T        Si     0.999025000000     0.972000000000     0.066250000000     0          
T        Si     0.821600000000     0.822000000000     0.259500000000     0          
O        O      0.959000000000     0.838000000000     0.789900000000     0          
O        O      0.799450000000     0.844366666667     0.804450000000     0          
O        O      0.996275000000     0.900266666667     0.793050000000     0          
O        O      0.989650000000     0.862866666667     0.875000000000     0          
O        O      0.818650000000     0.719233333333     0.522350000000     0          
O        O      0.875000000000     0.666666666667     0.500000000000     0          
T        Si     0.999025000000     0.861333333333     0.816250000000     0          
T        Si     0.821600000000     0.678000000000     0.509500000000     0          
T        Si     0.786200000000     0.750000000000     0.500000000000     0          
O        O      0.791000000000     0.828666666667     0.539900000000     0          
O        O      0.950550000000     0.822300000000     0.554450000000     0          
O        O      0.753725000000     0.766400000000     0.543050000000     0          
O        O      0.760350000000     0.803800000000     0.625000000000     0          
O        O      0.931350000000     0.947433333333     0.772350000000     0          
O        O      0.875000000000     0.666666666667     0.750000000000     0          
T        Si     0.750975000000     0.805333333333     0.566250000000     0          
T        Si     0.928400000000     0.988666666667     0.759500000000     0          
T        Si     0.963800000000     0.916666666667     0.750000000000     0          
O        O      0.959000000000     0.995333333333     0.710100000000     0          
O        O      0.799450000000     0.988966666667     0.695550000000     0          
O        O      0.996275000000     0.933066666667     0.706950000000     0          
O        O      0.989650000000     0.970466666667     0.625000000000     0          
O        O      0.818650000000     0.780766666667     0.977650000000     0          
O        O      0.875000000000     0.833333333333     0.500000000000     0          
T        Si     0.999025000000     0.972000000000     0.683750000000     0          
T        Si     0.821600000000     0.822000000000     0.990500000000     0          
O        O      0.791000000000     0.671333333333     0.960100000000     0          
O        O      0.950550000000     0.677700000000     0.945550000000     0          
O        O      0.753725000000     0.733600000000     0.956950000000     0          
O        O      0.760350000000     0.696200000000     0.875000000000     0          
O        O      0.931350000000     0.885900000000     0.727650000000     0          
O        O      0.875000000000     0.833333333333     0.750000000000     0          
T        Si     0.750975000000     0.694666666667     0.933750000000     0          
T        Si     0.928400000000     0.844666666667     0.740500000000     0          
O        O      0.791000000000     0.828666666667     0.710100000000     0          
O        O      0.950550000000     0.822300000000     0.695550000000     0          
O        O      0.753725000000     0.766400000000     0.706950000000     0          
O        O      0.931350000000     0.947433333333     0.977650000000     0          
T        Si     0.750975000000     0.805333333333     0.683750000000     0          
T        Si     0.928400000000     0.988666666667     0.990500000000     0          
T        Si     0.963800000000     0.916666666667     0.500000000000     0          
O        O      0.959000000000     0.838000000000     0.960100000000     0          
O        O      0.799450000000     0.844366666667     0.945550000000     0          
O        O      0.996275000000     0.900266666667     0.956950000000     0          
O        O      0.818650000000     0.719233333333     0.727650000000     0          
T        Si     0.999025000000     0.861333333333     0.933750000000     0          
T        Si     0.821600000000     0.678000000000     0.740500000000     0          
T        Si     0.786200000000     0.750000000000     0.750000000000     0          
O        O      0.791000000000     0.671333333333     0.789900000000     0          
O        O      0.950550000000     0.677700000000     0.804450000000     0          
O        O      0.753725000000     0.733600000000     0.793050000000     0          
O        O      0.931350000000     0.885900000000     0.522350000000     0          
T        Si     0.750975000000     0.694666666667     0.816250000000     0          
T        Si     0.928400000000     0.844666666667     0.509500000000     0          
O        O      0.959000000000     0.995333333333     0.539900000000     0          
O        O      0.799450000000     0.988966666667     0.554450000000     0          
O        O      0.996275000000     0.933066666667     0.543050000000     0          
O        O      0.818650000000     0.780766666667     0.772350000000     0          
T        Si     0.999025000000     0.972000000000     0.566250000000     0          
T        Si     0.821600000000     0.822000000000     0.759500000000     0          


