data_zeolite

_audit_creation_method RASPA-1.0
_audit_creation_date 2021-6-7
_audit_author_name ''

_cell_length_a    26.244
_cell_length_b    33.117
_cell_length_c    34.95
_cell_angle_alpha 90
_cell_angle_beta  90
_cell_angle_gamma 90
_cell_volume      30375.8

_symmetry_cell_setting          orthorhombic
_symmetry_space_group_name_Hall 'P 1'
_symmetry_space_group_name_H-M  'P 1'
_symmetry_Int_Tables_number     1

_symmetry_equiv_pos_as_xyz 'x,y,z'

loop_
_atom_site_label
_atom_site_type_symbol
_atom_site_fract_x
_atom_site_fract_y
_atom_site_fract_z
_atom_site_charge
O        O      0.239066666667     0.331333333333     0.421550000000     0          
O        O      0.279400000000     0.018100000000     0.354000000000     0          
O        O      0.214000000000     0.064833333333     0.387700000000     0          
O        O      0.306033333333     0.058033333333     0.416000000000     0          
O        O      0.286900000000     0.033733333333     0.019550000000     0          
O        O      0.230866666667     0.080633333333     0.065050000000     0          
O        O      0.317266666667     0.046900000000     0.089100000000     0          
O        O      0.191966666667     0.145700000000     0.031750000000     0          
T        Si     0.260366666667     0.034100000000     0.395150000000     0          
T        Si     0.267433333333     0.041766666667     0.062600000000     0          
T        Si     0.196433333333     0.120400000000     0.071000000000     0          
T        Si     0.166666666667     0.092333333333     0.375000000000     0          
T        Si     0.322833333333     0.000000000000     0.000000000000     0          
O        O      0.094266666667     0.002000000000     0.171550000000     0          
O        O      0.053933333333     0.315233333333     0.104000000000     0          
O        O      0.119333333333     0.268500000000     0.137700000000     0          
O        O      0.027300000000     0.275300000000     0.166000000000     0          
O        O      0.046433333333     0.299600000000     0.269550000000     0          
O        O      0.102466666667     0.252700000000     0.315050000000     0          
O        O      0.016066666667     0.286433333333     0.339100000000     0          
O        O      0.141366666667     0.187633333333     0.281750000000     0          
T        Si     0.072966666667     0.299233333333     0.145150000000     0          
T        Si     0.065900000000     0.291566666667     0.312600000000     0          
T        Si     0.136900000000     0.212933333333     0.321000000000     0          
T        Si     0.166666666667     0.241000000000     0.125000000000     0          
T        Si     0.010500000000     0.000000000000     0.250000000000     0          
O        O      0.239066666667     0.002000000000     0.078450000000     0          
O        O      0.279400000000     0.315233333333     0.146000000000     0          
O        O      0.214000000000     0.268500000000     0.112300000000     0          
O        O      0.306033333333     0.275300000000     0.084000000000     0          
O        O      0.286900000000     0.299600000000     0.480450000000     0          
O        O      0.230866666667     0.252700000000     0.434950000000     0          
O        O      0.317266666667     0.286433333333     0.410900000000     0          
O        O      0.191966666667     0.187633333333     0.468250000000     0          
T        Si     0.260366666667     0.299233333333     0.104850000000     0          
T        Si     0.267433333333     0.291566666667     0.437400000000     0          
T        Si     0.196433333333     0.212933333333     0.429000000000     0          
O        O      0.094266666667     0.331333333333     0.328450000000     0          
O        O      0.053933333333     0.018100000000     0.396000000000     0          
O        O      0.119333333333     0.064833333333     0.362300000000     0          
O        O      0.027300000000     0.058033333333     0.334000000000     0          
O        O      0.046433333333     0.033733333333     0.230450000000     0          
O        O      0.102466666667     0.080633333333     0.184950000000     0          
O        O      0.016066666667     0.046900000000     0.160900000000     0          
O        O      0.141366666667     0.145700000000     0.218250000000     0          
T        Si     0.072966666667     0.034100000000     0.354850000000     0          
T        Si     0.065900000000     0.041766666667     0.187400000000     0          
T        Si     0.136900000000     0.120400000000     0.179000000000     0          
O        O      0.072400000000     0.164666666667     0.421550000000     0          
O        O      0.112733333333     0.184766666667     0.354000000000     0          
O        O      0.047333333333     0.231500000000     0.387700000000     0          
O        O      0.139366666667     0.224700000000     0.416000000000     0          
O        O      0.120233333333     0.200400000000     0.019550000000     0          
O        O      0.064200000000     0.247300000000     0.065050000000     0          
O        O      0.150600000000     0.213566666667     0.089100000000     0          
O        O      0.025300000000     0.312366666667     0.031750000000     0          
T        Si     0.093700000000     0.200766666667     0.395150000000     0          
T        Si     0.100766666667     0.208433333333     0.062600000000     0          
T        Si     0.029766666667     0.287066666667     0.071000000000     0          
T        Si     0.000000000000     0.259000000000     0.375000000000     0          
T        Si     0.156166666667     0.166666666667     0.000000000000     0          
O        O      0.260933333333     0.168666666667     0.171550000000     0          
O        O      0.220600000000     0.148566666667     0.104000000000     0          
O        O      0.286000000000     0.101833333333     0.137700000000     0          
O        O      0.193966666667     0.108633333333     0.166000000000     0          
O        O      0.213100000000     0.132933333333     0.269550000000     0          
O        O      0.269133333333     0.086033333333     0.315050000000     0          
O        O      0.182733333333     0.119766666667     0.339100000000     0          
O        O      0.308033333333     0.020966666667     0.281750000000     0          
T        Si     0.239633333333     0.132566666667     0.145150000000     0          
T        Si     0.232566666667     0.124900000000     0.312600000000     0          
T        Si     0.303566666667     0.046266666667     0.321000000000     0          
T        Si     0.000000000000     0.074333333333     0.125000000000     0          
T        Si     0.177166666667     0.166666666667     0.250000000000     0          
O        O      0.072400000000     0.168666666667     0.078450000000     0          
O        O      0.112733333333     0.148566666667     0.146000000000     0          
O        O      0.047333333333     0.101833333333     0.112300000000     0          
O        O      0.139366666667     0.108633333333     0.084000000000     0          
O        O      0.120233333333     0.132933333333     0.480450000000     0          
O        O      0.064200000000     0.086033333333     0.434950000000     0          
O        O      0.150600000000     0.119766666667     0.410900000000     0          
O        O      0.025300000000     0.020966666667     0.468250000000     0          
T        Si     0.093700000000     0.132566666667     0.104850000000     0          
T        Si     0.100766666667     0.124900000000     0.437400000000     0          
T        Si     0.029766666667     0.046266666667     0.429000000000     0          
O        O      0.260933333333     0.164666666667     0.328450000000     0          
O        O      0.220600000000     0.184766666667     0.396000000000     0          
O        O      0.286000000000     0.231500000000     0.362300000000     0          
O        O      0.193966666667     0.224700000000     0.334000000000     0          
O        O      0.213100000000     0.200400000000     0.230450000000     0          
O        O      0.269133333333     0.247300000000     0.184950000000     0          
O        O      0.182733333333     0.213566666667     0.160900000000     0          
O        O      0.308033333333     0.312366666667     0.218250000000     0          
T        Si     0.239633333333     0.200766666667     0.354850000000     0          
T        Si     0.232566666667     0.208433333333     0.187400000000     0          
T        Si     0.303566666667     0.287066666667     0.179000000000     0          
O        O      0.239066666667     0.331333333333     0.921550000000     0          
O        O      0.279400000000     0.018100000000     0.854000000000     0          
O        O      0.214000000000     0.064833333333     0.887700000000     0          
O        O      0.306033333333     0.058033333333     0.916000000000     0          
O        O      0.286900000000     0.033733333333     0.519550000000     0          
O        O      0.230866666667     0.080633333333     0.565050000000     0          
O        O      0.317266666667     0.046900000000     0.589100000000     0          
O        O      0.191966666667     0.145700000000     0.531750000000     0          
T        Si     0.260366666667     0.034100000000     0.895150000000     0          
T        Si     0.267433333333     0.041766666667     0.562600000000     0          
T        Si     0.196433333333     0.120400000000     0.571000000000     0          
T        Si     0.166666666667     0.092333333333     0.875000000000     0          
T        Si     0.322833333333     0.000000000000     0.500000000000     0          
O        O      0.094266666667     0.002000000000     0.671550000000     0          
O        O      0.053933333333     0.315233333333     0.604000000000     0          
O        O      0.119333333333     0.268500000000     0.637700000000     0          
O        O      0.027300000000     0.275300000000     0.666000000000     0          
O        O      0.046433333333     0.299600000000     0.769550000000     0          
O        O      0.102466666667     0.252700000000     0.815050000000     0          
O        O      0.016066666667     0.286433333333     0.839100000000     0          
O        O      0.141366666667     0.187633333333     0.781750000000     0          
T        Si     0.072966666667     0.299233333333     0.645150000000     0          
T        Si     0.065900000000     0.291566666667     0.812600000000     0          
T        Si     0.136900000000     0.212933333333     0.821000000000     0          
T        Si     0.166666666667     0.241000000000     0.625000000000     0          
T        Si     0.010500000000     0.000000000000     0.750000000000     0          
O        O      0.239066666667     0.002000000000     0.578450000000     0          
O        O      0.279400000000     0.315233333333     0.646000000000     0          
O        O      0.214000000000     0.268500000000     0.612300000000     0          
O        O      0.306033333333     0.275300000000     0.584000000000     0          
O        O      0.286900000000     0.299600000000     0.980450000000     0          
O        O      0.230866666667     0.252700000000     0.934950000000     0          
O        O      0.317266666667     0.286433333333     0.910900000000     0          
O        O      0.191966666667     0.187633333333     0.968250000000     0          
T        Si     0.260366666667     0.299233333333     0.604850000000     0          
T        Si     0.267433333333     0.291566666667     0.937400000000     0          
T        Si     0.196433333333     0.212933333333     0.929000000000     0          
O        O      0.094266666667     0.331333333333     0.828450000000     0          
O        O      0.053933333333     0.018100000000     0.896000000000     0          
O        O      0.119333333333     0.064833333333     0.862300000000     0          
O        O      0.027300000000     0.058033333333     0.834000000000     0          
O        O      0.046433333333     0.033733333333     0.730450000000     0          
O        O      0.102466666667     0.080633333333     0.684950000000     0          
O        O      0.016066666667     0.046900000000     0.660900000000     0          
O        O      0.141366666667     0.145700000000     0.718250000000     0          
T        Si     0.072966666667     0.034100000000     0.854850000000     0          
T        Si     0.065900000000     0.041766666667     0.687400000000     0          
T        Si     0.136900000000     0.120400000000     0.679000000000     0          
O        O      0.072400000000     0.164666666667     0.921550000000     0          
O        O      0.112733333333     0.184766666667     0.854000000000     0          
O        O      0.047333333333     0.231500000000     0.887700000000     0          
O        O      0.139366666667     0.224700000000     0.916000000000     0          
O        O      0.120233333333     0.200400000000     0.519550000000     0          
O        O      0.064200000000     0.247300000000     0.565050000000     0          
O        O      0.150600000000     0.213566666667     0.589100000000     0          
O        O      0.025300000000     0.312366666667     0.531750000000     0          
T        Si     0.093700000000     0.200766666667     0.895150000000     0          
T        Si     0.100766666667     0.208433333333     0.562600000000     0          
T        Si     0.029766666667     0.287066666667     0.571000000000     0          
T        Si     0.000000000000     0.259000000000     0.875000000000     0          
T        Si     0.156166666667     0.166666666667     0.500000000000     0          
O        O      0.260933333333     0.168666666667     0.671550000000     0          
O        O      0.220600000000     0.148566666667     0.604000000000     0          
O        O      0.286000000000     0.101833333333     0.637700000000     0          
O        O      0.193966666667     0.108633333333     0.666000000000     0          
O        O      0.213100000000     0.132933333333     0.769550000000     0          
O        O      0.269133333333     0.086033333333     0.815050000000     0          
O        O      0.182733333333     0.119766666667     0.839100000000     0          
O        O      0.308033333333     0.020966666667     0.781750000000     0          
T        Si     0.239633333333     0.132566666667     0.645150000000     0          
T        Si     0.232566666667     0.124900000000     0.812600000000     0          
T        Si     0.303566666667     0.046266666667     0.821000000000     0          
T        Si     0.000000000000     0.074333333333     0.625000000000     0          
T        Si     0.177166666667     0.166666666667     0.750000000000     0          
O        O      0.072400000000     0.168666666667     0.578450000000     0          
O        O      0.112733333333     0.148566666667     0.646000000000     0          
O        O      0.047333333333     0.101833333333     0.612300000000     0          
O        O      0.139366666667     0.108633333333     0.584000000000     0          
O        O      0.120233333333     0.132933333333     0.980450000000     0          
O        O      0.064200000000     0.086033333333     0.934950000000     0          
O        O      0.150600000000     0.119766666667     0.910900000000     0          
O        O      0.025300000000     0.020966666667     0.968250000000     0          
T        Si     0.093700000000     0.132566666667     0.604850000000     0          
T        Si     0.100766666667     0.124900000000     0.937400000000     0          
T        Si     0.029766666667     0.046266666667     0.929000000000     0          
O        O      0.260933333333     0.164666666667     0.828450000000     0          
O        O      0.220600000000     0.184766666667     0.896000000000     0          
O        O      0.286000000000     0.231500000000     0.862300000000     0          
O        O      0.193966666667     0.224700000000     0.834000000000     0          
O        O      0.213100000000     0.200400000000     0.730450000000     0          
O        O      0.269133333333     0.247300000000     0.684950000000     0          
O        O      0.182733333333     0.213566666667     0.660900000000     0          
O        O      0.308033333333     0.312366666667     0.718250000000     0          
T        Si     0.239633333333     0.200766666667     0.854850000000     0          
T        Si     0.232566666667     0.208433333333     0.687400000000     0          
T        Si     0.303566666667     0.287066666667     0.679000000000     0          
O        O      0.239066666667     0.664666666667     0.421550000000     0          
O        O      0.279400000000     0.351433333333     0.354000000000     0          
O        O      0.214000000000     0.398166666667     0.387700000000     0          
O        O      0.306033333333     0.391366666667     0.416000000000     0          
O        O      0.286900000000     0.367066666667     0.019550000000     0          
O        O      0.230866666667     0.413966666667     0.065050000000     0          
O        O      0.317266666667     0.380233333333     0.089100000000     0          
O        O      0.191966666667     0.479033333333     0.031750000000     0          
T        Si     0.260366666667     0.367433333333     0.395150000000     0          
T        Si     0.267433333333     0.375100000000     0.062600000000     0          
T        Si     0.196433333333     0.453733333333     0.071000000000     0          
T        Si     0.166666666667     0.425666666667     0.375000000000     0          
T        Si     0.322833333333     0.333333333333     0.000000000000     0          
O        O      0.094266666667     0.335333333333     0.171550000000     0          
O        O      0.053933333333     0.648566666667     0.104000000000     0          
O        O      0.119333333333     0.601833333333     0.137700000000     0          
O        O      0.027300000000     0.608633333333     0.166000000000     0          
O        O      0.046433333333     0.632933333333     0.269550000000     0          
O        O      0.102466666667     0.586033333333     0.315050000000     0          
O        O      0.016066666667     0.619766666667     0.339100000000     0          
O        O      0.141366666667     0.520966666667     0.281750000000     0          
T        Si     0.072966666667     0.632566666667     0.145150000000     0          
T        Si     0.065900000000     0.624900000000     0.312600000000     0          
T        Si     0.136900000000     0.546266666667     0.321000000000     0          
T        Si     0.166666666667     0.574333333333     0.125000000000     0          
T        Si     0.010500000000     0.333333333333     0.250000000000     0          
O        O      0.239066666667     0.335333333333     0.078450000000     0          
O        O      0.279400000000     0.648566666667     0.146000000000     0          
O        O      0.214000000000     0.601833333333     0.112300000000     0          
O        O      0.306033333333     0.608633333333     0.084000000000     0          
O        O      0.286900000000     0.632933333333     0.480450000000     0          
O        O      0.230866666667     0.586033333333     0.434950000000     0          
O        O      0.317266666667     0.619766666667     0.410900000000     0          
O        O      0.191966666667     0.520966666667     0.468250000000     0          
T        Si     0.260366666667     0.632566666667     0.104850000000     0          
T        Si     0.267433333333     0.624900000000     0.437400000000     0          
T        Si     0.196433333333     0.546266666667     0.429000000000     0          
O        O      0.094266666667     0.664666666667     0.328450000000     0          
O        O      0.053933333333     0.351433333333     0.396000000000     0          
O        O      0.119333333333     0.398166666667     0.362300000000     0          
O        O      0.027300000000     0.391366666667     0.334000000000     0          
O        O      0.046433333333     0.367066666667     0.230450000000     0          
O        O      0.102466666667     0.413966666667     0.184950000000     0          
O        O      0.016066666667     0.380233333333     0.160900000000     0          
O        O      0.141366666667     0.479033333333     0.218250000000     0          
T        Si     0.072966666667     0.367433333333     0.354850000000     0          
T        Si     0.065900000000     0.375100000000     0.187400000000     0          
T        Si     0.136900000000     0.453733333333     0.179000000000     0          
O        O      0.072400000000     0.498000000000     0.421550000000     0          
O        O      0.112733333333     0.518100000000     0.354000000000     0          
O        O      0.047333333333     0.564833333333     0.387700000000     0          
O        O      0.139366666667     0.558033333333     0.416000000000     0          
O        O      0.120233333333     0.533733333333     0.019550000000     0          
O        O      0.064200000000     0.580633333333     0.065050000000     0          
O        O      0.150600000000     0.546900000000     0.089100000000     0          
O        O      0.025300000000     0.645700000000     0.031750000000     0          
T        Si     0.093700000000     0.534100000000     0.395150000000     0          
T        Si     0.100766666667     0.541766666667     0.062600000000     0          
T        Si     0.029766666667     0.620400000000     0.071000000000     0          
T        Si     0.000000000000     0.592333333333     0.375000000000     0          
T        Si     0.156166666667     0.500000000000     0.000000000000     0          
O        O      0.260933333333     0.502000000000     0.171550000000     0          
O        O      0.220600000000     0.481900000000     0.104000000000     0          
O        O      0.286000000000     0.435166666667     0.137700000000     0          
O        O      0.193966666667     0.441966666667     0.166000000000     0          
O        O      0.213100000000     0.466266666667     0.269550000000     0          
O        O      0.269133333333     0.419366666667     0.315050000000     0          
O        O      0.182733333333     0.453100000000     0.339100000000     0          
O        O      0.308033333333     0.354300000000     0.281750000000     0          
T        Si     0.239633333333     0.465900000000     0.145150000000     0          
T        Si     0.232566666667     0.458233333333     0.312600000000     0          
T        Si     0.303566666667     0.379600000000     0.321000000000     0          
T        Si     0.000000000000     0.407666666667     0.125000000000     0          
T        Si     0.177166666667     0.500000000000     0.250000000000     0          
O        O      0.072400000000     0.502000000000     0.078450000000     0          
O        O      0.112733333333     0.481900000000     0.146000000000     0          
O        O      0.047333333333     0.435166666667     0.112300000000     0          
O        O      0.139366666667     0.441966666667     0.084000000000     0          
O        O      0.120233333333     0.466266666667     0.480450000000     0          
O        O      0.064200000000     0.419366666667     0.434950000000     0          
O        O      0.150600000000     0.453100000000     0.410900000000     0          
O        O      0.025300000000     0.354300000000     0.468250000000     0          
T        Si     0.093700000000     0.465900000000     0.104850000000     0          
T        Si     0.100766666667     0.458233333333     0.437400000000     0          
T        Si     0.029766666667     0.379600000000     0.429000000000     0          
O        O      0.260933333333     0.498000000000     0.328450000000     0          
O        O      0.220600000000     0.518100000000     0.396000000000     0          
O        O      0.286000000000     0.564833333333     0.362300000000     0          
O        O      0.193966666667     0.558033333333     0.334000000000     0          
O        O      0.213100000000     0.533733333333     0.230450000000     0          
O        O      0.269133333333     0.580633333333     0.184950000000     0          
O        O      0.182733333333     0.546900000000     0.160900000000     0          
O        O      0.308033333333     0.645700000000     0.218250000000     0          
T        Si     0.239633333333     0.534100000000     0.354850000000     0          
T        Si     0.232566666667     0.541766666667     0.187400000000     0          
T        Si     0.303566666667     0.620400000000     0.179000000000     0          
O        O      0.239066666667     0.664666666667     0.921550000000     0          
O        O      0.279400000000     0.351433333333     0.854000000000     0          
O        O      0.214000000000     0.398166666667     0.887700000000     0          
O        O      0.306033333333     0.391366666667     0.916000000000     0          
O        O      0.286900000000     0.367066666667     0.519550000000     0          
O        O      0.230866666667     0.413966666667     0.565050000000     0          
O        O      0.317266666667     0.380233333333     0.589100000000     0          
O        O      0.191966666667     0.479033333333     0.531750000000     0          
T        Si     0.260366666667     0.367433333333     0.895150000000     0          
T        Si     0.267433333333     0.375100000000     0.562600000000     0          
T        Si     0.196433333333     0.453733333333     0.571000000000     0          
T        Si     0.166666666667     0.425666666667     0.875000000000     0          
T        Si     0.322833333333     0.333333333333     0.500000000000     0          
O        O      0.094266666667     0.335333333333     0.671550000000     0          
O        O      0.053933333333     0.648566666667     0.604000000000     0          
O        O      0.119333333333     0.601833333333     0.637700000000     0          
O        O      0.027300000000     0.608633333333     0.666000000000     0          
O        O      0.046433333333     0.632933333333     0.769550000000     0          
O        O      0.102466666667     0.586033333333     0.815050000000     0          
O        O      0.016066666667     0.619766666667     0.839100000000     0          
O        O      0.141366666667     0.520966666667     0.781750000000     0          
T        Si     0.072966666667     0.632566666667     0.645150000000     0          
T        Si     0.065900000000     0.624900000000     0.812600000000     0          
T        Si     0.136900000000     0.546266666667     0.821000000000     0          
T        Si     0.166666666667     0.574333333333     0.625000000000     0          
T        Si     0.010500000000     0.333333333333     0.750000000000     0          
O        O      0.239066666667     0.335333333333     0.578450000000     0          
O        O      0.279400000000     0.648566666667     0.646000000000     0          
O        O      0.214000000000     0.601833333333     0.612300000000     0          
O        O      0.306033333333     0.608633333333     0.584000000000     0          
O        O      0.286900000000     0.632933333333     0.980450000000     0          
O        O      0.230866666667     0.586033333333     0.934950000000     0          
O        O      0.317266666667     0.619766666667     0.910900000000     0          
O        O      0.191966666667     0.520966666667     0.968250000000     0          
T        Si     0.260366666667     0.632566666667     0.604850000000     0          
T        Si     0.267433333333     0.624900000000     0.937400000000     0          
T        Si     0.196433333333     0.546266666667     0.929000000000     0          
O        O      0.094266666667     0.664666666667     0.828450000000     0          
O        O      0.053933333333     0.351433333333     0.896000000000     0          
O        O      0.119333333333     0.398166666667     0.862300000000     0          
O        O      0.027300000000     0.391366666667     0.834000000000     0          
O        O      0.046433333333     0.367066666667     0.730450000000     0          
O        O      0.102466666667     0.413966666667     0.684950000000     0          
O        O      0.016066666667     0.380233333333     0.660900000000     0          
O        O      0.141366666667     0.479033333333     0.718250000000     0          
T        Si     0.072966666667     0.367433333333     0.854850000000     0          
T        Si     0.065900000000     0.375100000000     0.687400000000     0          
T        Si     0.136900000000     0.453733333333     0.679000000000     0          
O        O      0.072400000000     0.498000000000     0.921550000000     0          
O        O      0.112733333333     0.518100000000     0.854000000000     0          
O        O      0.047333333333     0.564833333333     0.887700000000     0          
O        O      0.139366666667     0.558033333333     0.916000000000     0          
O        O      0.120233333333     0.533733333333     0.519550000000     0          
O        O      0.064200000000     0.580633333333     0.565050000000     0          
O        O      0.150600000000     0.546900000000     0.589100000000     0          
O        O      0.025300000000     0.645700000000     0.531750000000     0          
T        Si     0.093700000000     0.534100000000     0.895150000000     0          
T        Si     0.100766666667     0.541766666667     0.562600000000     0          
T        Si     0.029766666667     0.620400000000     0.571000000000     0          
T        Si     0.000000000000     0.592333333333     0.875000000000     0          
T        Si     0.156166666667     0.500000000000     0.500000000000     0          
O        O      0.260933333333     0.502000000000     0.671550000000     0          
O        O      0.220600000000     0.481900000000     0.604000000000     0          
O        O      0.286000000000     0.435166666667     0.637700000000     0          
O        O      0.193966666667     0.441966666667     0.666000000000     0          
O        O      0.213100000000     0.466266666667     0.769550000000     0          
O        O      0.269133333333     0.419366666667     0.815050000000     0          
O        O      0.182733333333     0.453100000000     0.839100000000     0          
O        O      0.308033333333     0.354300000000     0.781750000000     0          
T        Si     0.239633333333     0.465900000000     0.645150000000     0          
T        Si     0.232566666667     0.458233333333     0.812600000000     0          
T        Si     0.303566666667     0.379600000000     0.821000000000     0          
T        Si     0.000000000000     0.407666666667     0.625000000000     0          
T        Si     0.177166666667     0.500000000000     0.750000000000     0          
O        O      0.072400000000     0.502000000000     0.578450000000     0          
O        O      0.112733333333     0.481900000000     0.646000000000     0          
O        O      0.047333333333     0.435166666667     0.612300000000     0          
O        O      0.139366666667     0.441966666667     0.584000000000     0          
O        O      0.120233333333     0.466266666667     0.980450000000     0          
O        O      0.064200000000     0.419366666667     0.934950000000     0          
O        O      0.150600000000     0.453100000000     0.910900000000     0          
O        O      0.025300000000     0.354300000000     0.968250000000     0          
T        Si     0.093700000000     0.465900000000     0.604850000000     0          
T        Si     0.100766666667     0.458233333333     0.937400000000     0          
T        Si     0.029766666667     0.379600000000     0.929000000000     0          
O        O      0.260933333333     0.498000000000     0.828450000000     0          
O        O      0.220600000000     0.518100000000     0.896000000000     0          
O        O      0.286000000000     0.564833333333     0.862300000000     0          
O        O      0.193966666667     0.558033333333     0.834000000000     0          
O        O      0.213100000000     0.533733333333     0.730450000000     0          
O        O      0.269133333333     0.580633333333     0.684950000000     0          
O        O      0.182733333333     0.546900000000     0.660900000000     0          
O        O      0.308033333333     0.645700000000     0.718250000000     0          
T        Si     0.239633333333     0.534100000000     0.854850000000     0          
T        Si     0.232566666667     0.541766666667     0.687400000000     0          
T        Si     0.303566666667     0.620400000000     0.679000000000     0          
O        O      0.239066666667     0.998000000000     0.421550000000     0          
O        O      0.279400000000     0.684766666667     0.354000000000     0          
O        O      0.214000000000     0.731500000000     0.387700000000     0          
O        O      0.306033333333     0.724700000000     0.416000000000     0          
O        O      0.286900000000     0.700400000000     0.019550000000     0          
O        O      0.230866666667     0.747300000000     0.065050000000     0          
O        O      0.317266666667     0.713566666667     0.089100000000     0          
O        O      0.191966666667     0.812366666667     0.031750000000     0          
T        Si     0.260366666667     0.700766666667     0.395150000000     0          
T        Si     0.267433333333     0.708433333333     0.062600000000     0          
T        Si     0.196433333333     0.787066666667     0.071000000000     0          
T        Si     0.166666666667     0.759000000000     0.375000000000     0          
T        Si     0.322833333333     0.666666666667     0.000000000000     0          
O        O      0.094266666667     0.668666666667     0.171550000000     0          
O        O      0.053933333333     0.981900000000     0.104000000000     0          
O        O      0.119333333333     0.935166666667     0.137700000000     0          
O        O      0.027300000000     0.941966666667     0.166000000000     0          
O        O      0.046433333333     0.966266666667     0.269550000000     0          
O        O      0.102466666667     0.919366666667     0.315050000000     0          
O        O      0.016066666667     0.953100000000     0.339100000000     0          
O        O      0.141366666667     0.854300000000     0.281750000000     0          
T        Si     0.072966666667     0.965900000000     0.145150000000     0          
T        Si     0.065900000000     0.958233333333     0.312600000000     0          
T        Si     0.136900000000     0.879600000000     0.321000000000     0          
T        Si     0.166666666667     0.907666666667     0.125000000000     0          
T        Si     0.010500000000     0.666666666667     0.250000000000     0          
O        O      0.239066666667     0.668666666667     0.078450000000     0          
O        O      0.279400000000     0.981900000000     0.146000000000     0          
O        O      0.214000000000     0.935166666667     0.112300000000     0          
O        O      0.306033333333     0.941966666667     0.084000000000     0          
O        O      0.286900000000     0.966266666667     0.480450000000     0          
O        O      0.230866666667     0.919366666667     0.434950000000     0          
O        O      0.317266666667     0.953100000000     0.410900000000     0          
O        O      0.191966666667     0.854300000000     0.468250000000     0          
T        Si     0.260366666667     0.965900000000     0.104850000000     0          
T        Si     0.267433333333     0.958233333333     0.437400000000     0          
T        Si     0.196433333333     0.879600000000     0.429000000000     0          
O        O      0.094266666667     0.998000000000     0.328450000000     0          
O        O      0.053933333333     0.684766666667     0.396000000000     0          
O        O      0.119333333333     0.731500000000     0.362300000000     0          
O        O      0.027300000000     0.724700000000     0.334000000000     0          
O        O      0.046433333333     0.700400000000     0.230450000000     0          
O        O      0.102466666667     0.747300000000     0.184950000000     0          
O        O      0.016066666667     0.713566666667     0.160900000000     0          
O        O      0.141366666667     0.812366666667     0.218250000000     0          
T        Si     0.072966666667     0.700766666667     0.354850000000     0          
T        Si     0.065900000000     0.708433333333     0.187400000000     0          
T        Si     0.136900000000     0.787066666667     0.179000000000     0          
O        O      0.072400000000     0.831333333333     0.421550000000     0          
O        O      0.112733333333     0.851433333333     0.354000000000     0          
O        O      0.047333333333     0.898166666667     0.387700000000     0          
O        O      0.139366666667     0.891366666667     0.416000000000     0          
O        O      0.120233333333     0.867066666667     0.019550000000     0          
O        O      0.064200000000     0.913966666667     0.065050000000     0          
O        O      0.150600000000     0.880233333333     0.089100000000     0          
O        O      0.025300000000     0.979033333333     0.031750000000     0          
T        Si     0.093700000000     0.867433333333     0.395150000000     0          
T        Si     0.100766666667     0.875100000000     0.062600000000     0          
T        Si     0.029766666667     0.953733333333     0.071000000000     0          
T        Si     0.000000000000     0.925666666667     0.375000000000     0          
T        Si     0.156166666667     0.833333333333     0.000000000000     0          
O        O      0.260933333333     0.835333333333     0.171550000000     0          
O        O      0.220600000000     0.815233333333     0.104000000000     0          
O        O      0.286000000000     0.768500000000     0.137700000000     0          
O        O      0.193966666667     0.775300000000     0.166000000000     0          
O        O      0.213100000000     0.799600000000     0.269550000000     0          
O        O      0.269133333333     0.752700000000     0.315050000000     0          
O        O      0.182733333333     0.786433333333     0.339100000000     0          
O        O      0.308033333333     0.687633333333     0.281750000000     0          
T        Si     0.239633333333     0.799233333333     0.145150000000     0          
T        Si     0.232566666667     0.791566666667     0.312600000000     0          
T        Si     0.303566666667     0.712933333333     0.321000000000     0          
T        Si     0.000000000000     0.741000000000     0.125000000000     0          
T        Si     0.177166666667     0.833333333333     0.250000000000     0          
O        O      0.072400000000     0.835333333333     0.078450000000     0          
O        O      0.112733333333     0.815233333333     0.146000000000     0          
O        O      0.047333333333     0.768500000000     0.112300000000     0          
O        O      0.139366666667     0.775300000000     0.084000000000     0          
O        O      0.120233333333     0.799600000000     0.480450000000     0          
O        O      0.064200000000     0.752700000000     0.434950000000     0          
O        O      0.150600000000     0.786433333333     0.410900000000     0          
O        O      0.025300000000     0.687633333333     0.468250000000     0          
T        Si     0.093700000000     0.799233333333     0.104850000000     0          
T        Si     0.100766666667     0.791566666667     0.437400000000     0          
T        Si     0.029766666667     0.712933333333     0.429000000000     0          
O        O      0.260933333333     0.831333333333     0.328450000000     0          
O        O      0.220600000000     0.851433333333     0.396000000000     0          
O        O      0.286000000000     0.898166666667     0.362300000000     0          
O        O      0.193966666667     0.891366666667     0.334000000000     0          
O        O      0.213100000000     0.867066666667     0.230450000000     0          
O        O      0.269133333333     0.913966666667     0.184950000000     0          
O        O      0.182733333333     0.880233333333     0.160900000000     0          
O        O      0.308033333333     0.979033333333     0.218250000000     0          
T        Si     0.239633333333     0.867433333333     0.354850000000     0          
T        Si     0.232566666667     0.875100000000     0.187400000000     0          
T        Si     0.303566666667     0.953733333333     0.179000000000     0          
O        O      0.239066666667     0.998000000000     0.921550000000     0          
O        O      0.279400000000     0.684766666667     0.854000000000     0          
O        O      0.214000000000     0.731500000000     0.887700000000     0          
O        O      0.306033333333     0.724700000000     0.916000000000     0          
O        O      0.286900000000     0.700400000000     0.519550000000     0          
O        O      0.230866666667     0.747300000000     0.565050000000     0          
O        O      0.317266666667     0.713566666667     0.589100000000     0          
O        O      0.191966666667     0.812366666667     0.531750000000     0          
T        Si     0.260366666667     0.700766666667     0.895150000000     0          
T        Si     0.267433333333     0.708433333333     0.562600000000     0          
T        Si     0.196433333333     0.787066666667     0.571000000000     0          
T        Si     0.166666666667     0.759000000000     0.875000000000     0          
T        Si     0.322833333333     0.666666666667     0.500000000000     0          
O        O      0.094266666667     0.668666666667     0.671550000000     0          
O        O      0.053933333333     0.981900000000     0.604000000000     0          
O        O      0.119333333333     0.935166666667     0.637700000000     0          
O        O      0.027300000000     0.941966666667     0.666000000000     0          
O        O      0.046433333333     0.966266666667     0.769550000000     0          
O        O      0.102466666667     0.919366666667     0.815050000000     0          
O        O      0.016066666667     0.953100000000     0.839100000000     0          
O        O      0.141366666667     0.854300000000     0.781750000000     0          
T        Si     0.072966666667     0.965900000000     0.645150000000     0          
T        Si     0.065900000000     0.958233333333     0.812600000000     0          
T        Si     0.136900000000     0.879600000000     0.821000000000     0          
T        Si     0.166666666667     0.907666666667     0.625000000000     0          
T        Si     0.010500000000     0.666666666667     0.750000000000     0          
O        O      0.239066666667     0.668666666667     0.578450000000     0          
O        O      0.279400000000     0.981900000000     0.646000000000     0          
O        O      0.214000000000     0.935166666667     0.612300000000     0          
O        O      0.306033333333     0.941966666667     0.584000000000     0          
O        O      0.286900000000     0.966266666667     0.980450000000     0          
O        O      0.230866666667     0.919366666667     0.934950000000     0          
O        O      0.317266666667     0.953100000000     0.910900000000     0          
O        O      0.191966666667     0.854300000000     0.968250000000     0          
T        Si     0.260366666667     0.965900000000     0.604850000000     0          
T        Si     0.267433333333     0.958233333333     0.937400000000     0          
T        Si     0.196433333333     0.879600000000     0.929000000000     0          
O        O      0.094266666667     0.998000000000     0.828450000000     0          
O        O      0.053933333333     0.684766666667     0.896000000000     0          
O        O      0.119333333333     0.731500000000     0.862300000000     0          
O        O      0.027300000000     0.724700000000     0.834000000000     0          
O        O      0.046433333333     0.700400000000     0.730450000000     0          
O        O      0.102466666667     0.747300000000     0.684950000000     0          
O        O      0.016066666667     0.713566666667     0.660900000000     0          
O        O      0.141366666667     0.812366666667     0.718250000000     0          
T        Si     0.072966666667     0.700766666667     0.854850000000     0          
T        Si     0.065900000000     0.708433333333     0.687400000000     0          
T        Si     0.136900000000     0.787066666667     0.679000000000     0          
O        O      0.072400000000     0.831333333333     0.921550000000     0          
O        O      0.112733333333     0.851433333333     0.854000000000     0          
O        O      0.047333333333     0.898166666667     0.887700000000     0          
O        O      0.139366666667     0.891366666667     0.916000000000     0          
O        O      0.120233333333     0.867066666667     0.519550000000     0          
O        O      0.064200000000     0.913966666667     0.565050000000     0          
O        O      0.150600000000     0.880233333333     0.589100000000     0          
O        O      0.025300000000     0.979033333333     0.531750000000     0          
T        Si     0.093700000000     0.867433333333     0.895150000000     0          
T        Si     0.100766666667     0.875100000000     0.562600000000     0          
T        Si     0.029766666667     0.953733333333     0.571000000000     0          
T        Si     0.000000000000     0.925666666667     0.875000000000     0          
T        Si     0.156166666667     0.833333333333     0.500000000000     0          
O        O      0.260933333333     0.835333333333     0.671550000000     0          
O        O      0.220600000000     0.815233333333     0.604000000000     0          
O        O      0.286000000000     0.768500000000     0.637700000000     0          
O        O      0.193966666667     0.775300000000     0.666000000000     0          
O        O      0.213100000000     0.799600000000     0.769550000000     0          
O        O      0.269133333333     0.752700000000     0.815050000000     0          
O        O      0.182733333333     0.786433333333     0.839100000000     0          
O        O      0.308033333333     0.687633333333     0.781750000000     0          
T        Si     0.239633333333     0.799233333333     0.645150000000     0          
T        Si     0.232566666667     0.791566666667     0.812600000000     0          
T        Si     0.303566666667     0.712933333333     0.821000000000     0          
T        Si     0.000000000000     0.741000000000     0.625000000000     0          
T        Si     0.177166666667     0.833333333333     0.750000000000     0          
O        O      0.072400000000     0.835333333333     0.578450000000     0          
O        O      0.112733333333     0.815233333333     0.646000000000     0          
O        O      0.047333333333     0.768500000000     0.612300000000     0          
O        O      0.139366666667     0.775300000000     0.584000000000     0          
O        O      0.120233333333     0.799600000000     0.980450000000     0          
O        O      0.064200000000     0.752700000000     0.934950000000     0          
O        O      0.150600000000     0.786433333333     0.910900000000     0          
O        O      0.025300000000     0.687633333333     0.968250000000     0          
T        Si     0.093700000000     0.799233333333     0.604850000000     0          
T        Si     0.100766666667     0.791566666667     0.937400000000     0          
T        Si     0.029766666667     0.712933333333     0.929000000000     0          
O        O      0.260933333333     0.831333333333     0.828450000000     0          
O        O      0.220600000000     0.851433333333     0.896000000000     0          
O        O      0.286000000000     0.898166666667     0.862300000000     0          
O        O      0.193966666667     0.891366666667     0.834000000000     0          
O        O      0.213100000000     0.867066666667     0.730450000000     0          
O        O      0.269133333333     0.913966666667     0.684950000000     0          
O        O      0.182733333333     0.880233333333     0.660900000000     0          
O        O      0.308033333333     0.979033333333     0.718250000000     0          
T        Si     0.239633333333     0.867433333333     0.854850000000     0          
T        Si     0.232566666667     0.875100000000     0.687400000000     0          
T        Si     0.303566666667     0.953733333333     0.679000000000     0          
O        O      0.572400000000     0.331333333333     0.421550000000     0          
O        O      0.612733333333     0.018100000000     0.354000000000     0          
O        O      0.547333333333     0.064833333333     0.387700000000     0          
O        O      0.639366666667     0.058033333333     0.416000000000     0          
O        O      0.620233333333     0.033733333333     0.019550000000     0          
O        O      0.564200000000     0.080633333333     0.065050000000     0          
O        O      0.650600000000     0.046900000000     0.089100000000     0          
O        O      0.525300000000     0.145700000000     0.031750000000     0          
T        Si     0.593700000000     0.034100000000     0.395150000000     0          
T        Si     0.600766666667     0.041766666667     0.062600000000     0          
T        Si     0.529766666667     0.120400000000     0.071000000000     0          
T        Si     0.500000000000     0.092333333333     0.375000000000     0          
T        Si     0.656166666667     0.000000000000     0.000000000000     0          
O        O      0.427600000000     0.002000000000     0.171550000000     0          
O        O      0.387266666667     0.315233333333     0.104000000000     0          
O        O      0.452666666667     0.268500000000     0.137700000000     0          
O        O      0.360633333333     0.275300000000     0.166000000000     0          
O        O      0.379766666667     0.299600000000     0.269550000000     0          
O        O      0.435800000000     0.252700000000     0.315050000000     0          
O        O      0.349400000000     0.286433333333     0.339100000000     0          
O        O      0.474700000000     0.187633333333     0.281750000000     0          
T        Si     0.406300000000     0.299233333333     0.145150000000     0          
T        Si     0.399233333333     0.291566666667     0.312600000000     0          
T        Si     0.470233333333     0.212933333333     0.321000000000     0          
T        Si     0.500000000000     0.241000000000     0.125000000000     0          
T        Si     0.343833333333     0.000000000000     0.250000000000     0          
O        O      0.572400000000     0.002000000000     0.078450000000     0          
O        O      0.612733333333     0.315233333333     0.146000000000     0          
O        O      0.547333333333     0.268500000000     0.112300000000     0          
O        O      0.639366666667     0.275300000000     0.084000000000     0          
O        O      0.620233333333     0.299600000000     0.480450000000     0          
O        O      0.564200000000     0.252700000000     0.434950000000     0          
O        O      0.650600000000     0.286433333333     0.410900000000     0          
O        O      0.525300000000     0.187633333333     0.468250000000     0          
T        Si     0.593700000000     0.299233333333     0.104850000000     0          
T        Si     0.600766666667     0.291566666667     0.437400000000     0          
T        Si     0.529766666667     0.212933333333     0.429000000000     0          
O        O      0.427600000000     0.331333333333     0.328450000000     0          
O        O      0.387266666667     0.018100000000     0.396000000000     0          
O        O      0.452666666667     0.064833333333     0.362300000000     0          
O        O      0.360633333333     0.058033333333     0.334000000000     0          
O        O      0.379766666667     0.033733333333     0.230450000000     0          
O        O      0.435800000000     0.080633333333     0.184950000000     0          
O        O      0.349400000000     0.046900000000     0.160900000000     0          
O        O      0.474700000000     0.145700000000     0.218250000000     0          
T        Si     0.406300000000     0.034100000000     0.354850000000     0          
T        Si     0.399233333333     0.041766666667     0.187400000000     0          
T        Si     0.470233333333     0.120400000000     0.179000000000     0          
O        O      0.405733333333     0.164666666667     0.421550000000     0          
O        O      0.446066666667     0.184766666667     0.354000000000     0          
O        O      0.380666666667     0.231500000000     0.387700000000     0          
O        O      0.472700000000     0.224700000000     0.416000000000     0          
O        O      0.453566666667     0.200400000000     0.019550000000     0          
O        O      0.397533333333     0.247300000000     0.065050000000     0          
O        O      0.483933333333     0.213566666667     0.089100000000     0          
O        O      0.358633333333     0.312366666667     0.031750000000     0          
T        Si     0.427033333333     0.200766666667     0.395150000000     0          
T        Si     0.434100000000     0.208433333333     0.062600000000     0          
T        Si     0.363100000000     0.287066666667     0.071000000000     0          
T        Si     0.333333333333     0.259000000000     0.375000000000     0          
T        Si     0.489500000000     0.166666666667     0.000000000000     0          
O        O      0.594266666667     0.168666666667     0.171550000000     0          
O        O      0.553933333333     0.148566666667     0.104000000000     0          
O        O      0.619333333333     0.101833333333     0.137700000000     0          
O        O      0.527300000000     0.108633333333     0.166000000000     0          
O        O      0.546433333333     0.132933333333     0.269550000000     0          
O        O      0.602466666667     0.086033333333     0.315050000000     0          
O        O      0.516066666667     0.119766666667     0.339100000000     0          
O        O      0.641366666667     0.020966666667     0.281750000000     0          
T        Si     0.572966666667     0.132566666667     0.145150000000     0          
T        Si     0.565900000000     0.124900000000     0.312600000000     0          
T        Si     0.636900000000     0.046266666667     0.321000000000     0          
T        Si     0.333333333333     0.074333333333     0.125000000000     0          
T        Si     0.510500000000     0.166666666667     0.250000000000     0          
O        O      0.405733333333     0.168666666667     0.078450000000     0          
O        O      0.446066666667     0.148566666667     0.146000000000     0          
O        O      0.380666666667     0.101833333333     0.112300000000     0          
O        O      0.472700000000     0.108633333333     0.084000000000     0          
O        O      0.453566666667     0.132933333333     0.480450000000     0          
O        O      0.397533333333     0.086033333333     0.434950000000     0          
O        O      0.483933333333     0.119766666667     0.410900000000     0          
O        O      0.358633333333     0.020966666667     0.468250000000     0          
T        Si     0.427033333333     0.132566666667     0.104850000000     0          
T        Si     0.434100000000     0.124900000000     0.437400000000     0          
T        Si     0.363100000000     0.046266666667     0.429000000000     0          
O        O      0.594266666667     0.164666666667     0.328450000000     0          
O        O      0.553933333333     0.184766666667     0.396000000000     0          
O        O      0.619333333333     0.231500000000     0.362300000000     0          
O        O      0.527300000000     0.224700000000     0.334000000000     0          
O        O      0.546433333333     0.200400000000     0.230450000000     0          
O        O      0.602466666667     0.247300000000     0.184950000000     0          
O        O      0.516066666667     0.213566666667     0.160900000000     0          
O        O      0.641366666667     0.312366666667     0.218250000000     0          
T        Si     0.572966666667     0.200766666667     0.354850000000     0          
T        Si     0.565900000000     0.208433333333     0.187400000000     0          
T        Si     0.636900000000     0.287066666667     0.179000000000     0          
O        O      0.572400000000     0.331333333333     0.921550000000     0          
O        O      0.612733333333     0.018100000000     0.854000000000     0          
O        O      0.547333333333     0.064833333333     0.887700000000     0          
O        O      0.639366666667     0.058033333333     0.916000000000     0          
O        O      0.620233333333     0.033733333333     0.519550000000     0          
O        O      0.564200000000     0.080633333333     0.565050000000     0          
O        O      0.650600000000     0.046900000000     0.589100000000     0          
O        O      0.525300000000     0.145700000000     0.531750000000     0          
T        Si     0.593700000000     0.034100000000     0.895150000000     0          
T        Si     0.600766666667     0.041766666667     0.562600000000     0          
T        Si     0.529766666667     0.120400000000     0.571000000000     0          
T        Si     0.500000000000     0.092333333333     0.875000000000     0          
T        Si     0.656166666667     0.000000000000     0.500000000000     0          
O        O      0.427600000000     0.002000000000     0.671550000000     0          
O        O      0.387266666667     0.315233333333     0.604000000000     0          
O        O      0.452666666667     0.268500000000     0.637700000000     0          
O        O      0.360633333333     0.275300000000     0.666000000000     0          
O        O      0.379766666667     0.299600000000     0.769550000000     0          
O        O      0.435800000000     0.252700000000     0.815050000000     0          
O        O      0.349400000000     0.286433333333     0.839100000000     0          
O        O      0.474700000000     0.187633333333     0.781750000000     0          
T        Si     0.406300000000     0.299233333333     0.645150000000     0          
T        Si     0.399233333333     0.291566666667     0.812600000000     0          
T        Si     0.470233333333     0.212933333333     0.821000000000     0          
T        Si     0.500000000000     0.241000000000     0.625000000000     0          
T        Si     0.343833333333     0.000000000000     0.750000000000     0          
O        O      0.572400000000     0.002000000000     0.578450000000     0          
O        O      0.612733333333     0.315233333333     0.646000000000     0          
O        O      0.547333333333     0.268500000000     0.612300000000     0          
O        O      0.639366666667     0.275300000000     0.584000000000     0          
O        O      0.620233333333     0.299600000000     0.980450000000     0          
O        O      0.564200000000     0.252700000000     0.934950000000     0          
O        O      0.650600000000     0.286433333333     0.910900000000     0          
O        O      0.525300000000     0.187633333333     0.968250000000     0          
T        Si     0.593700000000     0.299233333333     0.604850000000     0          
T        Si     0.600766666667     0.291566666667     0.937400000000     0          
T        Si     0.529766666667     0.212933333333     0.929000000000     0          
O        O      0.427600000000     0.331333333333     0.828450000000     0          
O        O      0.387266666667     0.018100000000     0.896000000000     0          
O        O      0.452666666667     0.064833333333     0.862300000000     0          
O        O      0.360633333333     0.058033333333     0.834000000000     0          
O        O      0.379766666667     0.033733333333     0.730450000000     0          
O        O      0.435800000000     0.080633333333     0.684950000000     0          
O        O      0.349400000000     0.046900000000     0.660900000000     0          
O        O      0.474700000000     0.145700000000     0.718250000000     0          
T        Si     0.406300000000     0.034100000000     0.854850000000     0          
T        Si     0.399233333333     0.041766666667     0.687400000000     0          
T        Si     0.470233333333     0.120400000000     0.679000000000     0          
O        O      0.405733333333     0.164666666667     0.921550000000     0          
O        O      0.446066666667     0.184766666667     0.854000000000     0          
O        O      0.380666666667     0.231500000000     0.887700000000     0          
O        O      0.472700000000     0.224700000000     0.916000000000     0          
O        O      0.453566666667     0.200400000000     0.519550000000     0          
O        O      0.397533333333     0.247300000000     0.565050000000     0          
O        O      0.483933333333     0.213566666667     0.589100000000     0          
O        O      0.358633333333     0.312366666667     0.531750000000     0          
T        Si     0.427033333333     0.200766666667     0.895150000000     0          
T        Si     0.434100000000     0.208433333333     0.562600000000     0          
T        Si     0.363100000000     0.287066666667     0.571000000000     0          
T        Si     0.333333333333     0.259000000000     0.875000000000     0          
T        Si     0.489500000000     0.166666666667     0.500000000000     0          
O        O      0.594266666667     0.168666666667     0.671550000000     0          
O        O      0.553933333333     0.148566666667     0.604000000000     0          
O        O      0.619333333333     0.101833333333     0.637700000000     0          
O        O      0.527300000000     0.108633333333     0.666000000000     0          
O        O      0.546433333333     0.132933333333     0.769550000000     0          
O        O      0.602466666667     0.086033333333     0.815050000000     0          
O        O      0.516066666667     0.119766666667     0.839100000000     0          
O        O      0.641366666667     0.020966666667     0.781750000000     0          
T        Si     0.572966666667     0.132566666667     0.645150000000     0          
T        Si     0.565900000000     0.124900000000     0.812600000000     0          
T        Si     0.636900000000     0.046266666667     0.821000000000     0          
T        Si     0.333333333333     0.074333333333     0.625000000000     0          
T        Si     0.510500000000     0.166666666667     0.750000000000     0          
O        O      0.405733333333     0.168666666667     0.578450000000     0          
O        O      0.446066666667     0.148566666667     0.646000000000     0          
O        O      0.380666666667     0.101833333333     0.612300000000     0          
O        O      0.472700000000     0.108633333333     0.584000000000     0          
O        O      0.453566666667     0.132933333333     0.980450000000     0          
O        O      0.397533333333     0.086033333333     0.934950000000     0          
O        O      0.483933333333     0.119766666667     0.910900000000     0          
O        O      0.358633333333     0.020966666667     0.968250000000     0          
T        Si     0.427033333333     0.132566666667     0.604850000000     0          
T        Si     0.434100000000     0.124900000000     0.937400000000     0          
T        Si     0.363100000000     0.046266666667     0.929000000000     0          
O        O      0.594266666667     0.164666666667     0.828450000000     0          
O        O      0.553933333333     0.184766666667     0.896000000000     0          
O        O      0.619333333333     0.231500000000     0.862300000000     0          
O        O      0.527300000000     0.224700000000     0.834000000000     0          
O        O      0.546433333333     0.200400000000     0.730450000000     0          
O        O      0.602466666667     0.247300000000     0.684950000000     0          
O        O      0.516066666667     0.213566666667     0.660900000000     0          
O        O      0.641366666667     0.312366666667     0.718250000000     0          
T        Si     0.572966666667     0.200766666667     0.854850000000     0          
T        Si     0.565900000000     0.208433333333     0.687400000000     0          
T        Si     0.636900000000     0.287066666667     0.679000000000     0          
O        O      0.572400000000     0.664666666667     0.421550000000     0          
O        O      0.612733333333     0.351433333333     0.354000000000     0          
O        O      0.547333333333     0.398166666667     0.387700000000     0          
O        O      0.639366666667     0.391366666667     0.416000000000     0          
O        O      0.620233333333     0.367066666667     0.019550000000     0          
O        O      0.564200000000     0.413966666667     0.065050000000     0          
O        O      0.650600000000     0.380233333333     0.089100000000     0          
O        O      0.525300000000     0.479033333333     0.031750000000     0          
T        Si     0.593700000000     0.367433333333     0.395150000000     0          
T        Si     0.600766666667     0.375100000000     0.062600000000     0          
T        Si     0.529766666667     0.453733333333     0.071000000000     0          
T        Si     0.500000000000     0.425666666667     0.375000000000     0          
T        Si     0.656166666667     0.333333333333     0.000000000000     0          
O        O      0.427600000000     0.335333333333     0.171550000000     0          
O        O      0.387266666667     0.648566666667     0.104000000000     0          
O        O      0.452666666667     0.601833333333     0.137700000000     0          
O        O      0.360633333333     0.608633333333     0.166000000000     0          
O        O      0.379766666667     0.632933333333     0.269550000000     0          
O        O      0.435800000000     0.586033333333     0.315050000000     0          
O        O      0.349400000000     0.619766666667     0.339100000000     0          
O        O      0.474700000000     0.520966666667     0.281750000000     0          
T        Si     0.406300000000     0.632566666667     0.145150000000     0          
T        Si     0.399233333333     0.624900000000     0.312600000000     0          
T        Si     0.470233333333     0.546266666667     0.321000000000     0          
T        Si     0.500000000000     0.574333333333     0.125000000000     0          
T        Si     0.343833333333     0.333333333333     0.250000000000     0          
O        O      0.572400000000     0.335333333333     0.078450000000     0          
O        O      0.612733333333     0.648566666667     0.146000000000     0          
O        O      0.547333333333     0.601833333333     0.112300000000     0          
O        O      0.639366666667     0.608633333333     0.084000000000     0          
O        O      0.620233333333     0.632933333333     0.480450000000     0          
O        O      0.564200000000     0.586033333333     0.434950000000     0          
O        O      0.650600000000     0.619766666667     0.410900000000     0          
O        O      0.525300000000     0.520966666667     0.468250000000     0          
T        Si     0.593700000000     0.632566666667     0.104850000000     0          
T        Si     0.600766666667     0.624900000000     0.437400000000     0          
T        Si     0.529766666667     0.546266666667     0.429000000000     0          
O        O      0.427600000000     0.664666666667     0.328450000000     0          
O        O      0.387266666667     0.351433333333     0.396000000000     0          
O        O      0.452666666667     0.398166666667     0.362300000000     0          
O        O      0.360633333333     0.391366666667     0.334000000000     0          
O        O      0.379766666667     0.367066666667     0.230450000000     0          
O        O      0.435800000000     0.413966666667     0.184950000000     0          
O        O      0.349400000000     0.380233333333     0.160900000000     0          
O        O      0.474700000000     0.479033333333     0.218250000000     0          
T        Si     0.406300000000     0.367433333333     0.354850000000     0          
T        Si     0.399233333333     0.375100000000     0.187400000000     0          
T        Si     0.470233333333     0.453733333333     0.179000000000     0          
O        O      0.405733333333     0.498000000000     0.421550000000     0          
O        O      0.446066666667     0.518100000000     0.354000000000     0          
O        O      0.380666666667     0.564833333333     0.387700000000     0          
O        O      0.472700000000     0.558033333333     0.416000000000     0          
O        O      0.453566666667     0.533733333333     0.019550000000     0          
O        O      0.397533333333     0.580633333333     0.065050000000     0          
O        O      0.483933333333     0.546900000000     0.089100000000     0          
O        O      0.358633333333     0.645700000000     0.031750000000     0          
T        Si     0.427033333333     0.534100000000     0.395150000000     0          
T        Si     0.434100000000     0.541766666667     0.062600000000     0          
T        Si     0.363100000000     0.620400000000     0.071000000000     0          
T        Si     0.333333333333     0.592333333333     0.375000000000     0          
T        Si     0.489500000000     0.500000000000     0.000000000000     0          
O        O      0.594266666667     0.502000000000     0.171550000000     0          
O        O      0.553933333333     0.481900000000     0.104000000000     0          
O        O      0.619333333333     0.435166666667     0.137700000000     0          
O        O      0.527300000000     0.441966666667     0.166000000000     0          
O        O      0.546433333333     0.466266666667     0.269550000000     0          
O        O      0.602466666667     0.419366666667     0.315050000000     0          
O        O      0.516066666667     0.453100000000     0.339100000000     0          
O        O      0.641366666667     0.354300000000     0.281750000000     0          
T        Si     0.572966666667     0.465900000000     0.145150000000     0          
T        Si     0.565900000000     0.458233333333     0.312600000000     0          
T        Si     0.636900000000     0.379600000000     0.321000000000     0          
T        Si     0.333333333333     0.407666666667     0.125000000000     0          
T        Si     0.510500000000     0.500000000000     0.250000000000     0          
O        O      0.405733333333     0.502000000000     0.078450000000     0          
O        O      0.446066666667     0.481900000000     0.146000000000     0          
O        O      0.380666666667     0.435166666667     0.112300000000     0          
O        O      0.472700000000     0.441966666667     0.084000000000     0          
O        O      0.453566666667     0.466266666667     0.480450000000     0          
O        O      0.397533333333     0.419366666667     0.434950000000     0          
O        O      0.483933333333     0.453100000000     0.410900000000     0          
O        O      0.358633333333     0.354300000000     0.468250000000     0          
T        Si     0.427033333333     0.465900000000     0.104850000000     0          
T        Si     0.434100000000     0.458233333333     0.437400000000     0          
T        Si     0.363100000000     0.379600000000     0.429000000000     0          
O        O      0.594266666667     0.498000000000     0.328450000000     0          
O        O      0.553933333333     0.518100000000     0.396000000000     0          
O        O      0.619333333333     0.564833333333     0.362300000000     0          
O        O      0.527300000000     0.558033333333     0.334000000000     0          
O        O      0.546433333333     0.533733333333     0.230450000000     0          
O        O      0.602466666667     0.580633333333     0.184950000000     0          
O        O      0.516066666667     0.546900000000     0.160900000000     0          
O        O      0.641366666667     0.645700000000     0.218250000000     0          
T        Si     0.572966666667     0.534100000000     0.354850000000     0          
T        Si     0.565900000000     0.541766666667     0.187400000000     0          
T        Si     0.636900000000     0.620400000000     0.179000000000     0          
O        O      0.572400000000     0.664666666667     0.921550000000     0          
O        O      0.612733333333     0.351433333333     0.854000000000     0          
O        O      0.547333333333     0.398166666667     0.887700000000     0          
O        O      0.639366666667     0.391366666667     0.916000000000     0          
O        O      0.620233333333     0.367066666667     0.519550000000     0          
O        O      0.564200000000     0.413966666667     0.565050000000     0          
O        O      0.650600000000     0.380233333333     0.589100000000     0          
O        O      0.525300000000     0.479033333333     0.531750000000     0          
T        Si     0.593700000000     0.367433333333     0.895150000000     0          
T        Si     0.600766666667     0.375100000000     0.562600000000     0          
T        Si     0.529766666667     0.453733333333     0.571000000000     0          
T        Si     0.500000000000     0.425666666667     0.875000000000     0          
T        Si     0.656166666667     0.333333333333     0.500000000000     0          
O        O      0.427600000000     0.335333333333     0.671550000000     0          
O        O      0.387266666667     0.648566666667     0.604000000000     0          
O        O      0.452666666667     0.601833333333     0.637700000000     0          
O        O      0.360633333333     0.608633333333     0.666000000000     0          
O        O      0.379766666667     0.632933333333     0.769550000000     0          
O        O      0.435800000000     0.586033333333     0.815050000000     0          
O        O      0.349400000000     0.619766666667     0.839100000000     0          
O        O      0.474700000000     0.520966666667     0.781750000000     0          
T        Si     0.406300000000     0.632566666667     0.645150000000     0          
T        Si     0.399233333333     0.624900000000     0.812600000000     0          
T        Si     0.470233333333     0.546266666667     0.821000000000     0          
T        Si     0.500000000000     0.574333333333     0.625000000000     0          
T        Si     0.343833333333     0.333333333333     0.750000000000     0          
O        O      0.572400000000     0.335333333333     0.578450000000     0          
O        O      0.612733333333     0.648566666667     0.646000000000     0          
O        O      0.547333333333     0.601833333333     0.612300000000     0          
O        O      0.639366666667     0.608633333333     0.584000000000     0          
O        O      0.620233333333     0.632933333333     0.980450000000     0          
O        O      0.564200000000     0.586033333333     0.934950000000     0          
O        O      0.650600000000     0.619766666667     0.910900000000     0          
O        O      0.525300000000     0.520966666667     0.968250000000     0          
T        Si     0.593700000000     0.632566666667     0.604850000000     0          
T        Si     0.600766666667     0.624900000000     0.937400000000     0          
T        Si     0.529766666667     0.546266666667     0.929000000000     0          
O        O      0.427600000000     0.664666666667     0.828450000000     0          
O        O      0.387266666667     0.351433333333     0.896000000000     0          
O        O      0.452666666667     0.398166666667     0.862300000000     0          
O        O      0.360633333333     0.391366666667     0.834000000000     0          
O        O      0.379766666667     0.367066666667     0.730450000000     0          
O        O      0.435800000000     0.413966666667     0.684950000000     0          
O        O      0.349400000000     0.380233333333     0.660900000000     0          
O        O      0.474700000000     0.479033333333     0.718250000000     0          
T        Si     0.406300000000     0.367433333333     0.854850000000     0          
T        Si     0.399233333333     0.375100000000     0.687400000000     0          
T        Si     0.470233333333     0.453733333333     0.679000000000     0          
O        O      0.405733333333     0.498000000000     0.921550000000     0          
O        O      0.446066666667     0.518100000000     0.854000000000     0          
O        O      0.380666666667     0.564833333333     0.887700000000     0          
O        O      0.472700000000     0.558033333333     0.916000000000     0          
O        O      0.453566666667     0.533733333333     0.519550000000     0          
O        O      0.397533333333     0.580633333333     0.565050000000     0          
O        O      0.483933333333     0.546900000000     0.589100000000     0          
O        O      0.358633333333     0.645700000000     0.531750000000     0          
T        Si     0.427033333333     0.534100000000     0.895150000000     0          
T        Si     0.434100000000     0.541766666667     0.562600000000     0          
T        Si     0.363100000000     0.620400000000     0.571000000000     0          
T        Si     0.333333333333     0.592333333333     0.875000000000     0          
T        Si     0.489500000000     0.500000000000     0.500000000000     0          
O        O      0.594266666667     0.502000000000     0.671550000000     0          
O        O      0.553933333333     0.481900000000     0.604000000000     0          
O        O      0.619333333333     0.435166666667     0.637700000000     0          
O        O      0.527300000000     0.441966666667     0.666000000000     0          
O        O      0.546433333333     0.466266666667     0.769550000000     0          
O        O      0.602466666667     0.419366666667     0.815050000000     0          
O        O      0.516066666667     0.453100000000     0.839100000000     0          
O        O      0.641366666667     0.354300000000     0.781750000000     0          
T        Si     0.572966666667     0.465900000000     0.645150000000     0          
T        Si     0.565900000000     0.458233333333     0.812600000000     0          
T        Si     0.636900000000     0.379600000000     0.821000000000     0          
T        Si     0.333333333333     0.407666666667     0.625000000000     0          
T        Si     0.510500000000     0.500000000000     0.750000000000     0          
O        O      0.405733333333     0.502000000000     0.578450000000     0          
O        O      0.446066666667     0.481900000000     0.646000000000     0          
O        O      0.380666666667     0.435166666667     0.612300000000     0          
O        O      0.472700000000     0.441966666667     0.584000000000     0          
O        O      0.453566666667     0.466266666667     0.980450000000     0          
O        O      0.397533333333     0.419366666667     0.934950000000     0          
O        O      0.483933333333     0.453100000000     0.910900000000     0          
O        O      0.358633333333     0.354300000000     0.968250000000     0          
T        Si     0.427033333333     0.465900000000     0.604850000000     0          
T        Si     0.434100000000     0.458233333333     0.937400000000     0          
T        Si     0.363100000000     0.379600000000     0.929000000000     0          
O        O      0.594266666667     0.498000000000     0.828450000000     0          
O        O      0.553933333333     0.518100000000     0.896000000000     0          
O        O      0.619333333333     0.564833333333     0.862300000000     0          
O        O      0.527300000000     0.558033333333     0.834000000000     0          
O        O      0.546433333333     0.533733333333     0.730450000000     0          
O        O      0.602466666667     0.580633333333     0.684950000000     0          
O        O      0.516066666667     0.546900000000     0.660900000000     0          
O        O      0.641366666667     0.645700000000     0.718250000000     0          
T        Si     0.572966666667     0.534100000000     0.854850000000     0          
T        Si     0.565900000000     0.541766666667     0.687400000000     0          
T        Si     0.636900000000     0.620400000000     0.679000000000     0          
O        O      0.572400000000     0.998000000000     0.421550000000     0          
O        O      0.612733333333     0.684766666667     0.354000000000     0          
O        O      0.547333333333     0.731500000000     0.387700000000     0          
O        O      0.639366666667     0.724700000000     0.416000000000     0          
O        O      0.620233333333     0.700400000000     0.019550000000     0          
O        O      0.564200000000     0.747300000000     0.065050000000     0          
O        O      0.650600000000     0.713566666667     0.089100000000     0          
O        O      0.525300000000     0.812366666667     0.031750000000     0          
T        Si     0.593700000000     0.700766666667     0.395150000000     0          
T        Si     0.600766666667     0.708433333333     0.062600000000     0          
T        Si     0.529766666667     0.787066666667     0.071000000000     0          
T        Si     0.500000000000     0.759000000000     0.375000000000     0          
T        Si     0.656166666667     0.666666666667     0.000000000000     0          
O        O      0.427600000000     0.668666666667     0.171550000000     0          
O        O      0.387266666667     0.981900000000     0.104000000000     0          
O        O      0.452666666667     0.935166666667     0.137700000000     0          
O        O      0.360633333333     0.941966666667     0.166000000000     0          
O        O      0.379766666667     0.966266666667     0.269550000000     0          
O        O      0.435800000000     0.919366666667     0.315050000000     0          
O        O      0.349400000000     0.953100000000     0.339100000000     0          
O        O      0.474700000000     0.854300000000     0.281750000000     0          
T        Si     0.406300000000     0.965900000000     0.145150000000     0          
T        Si     0.399233333333     0.958233333333     0.312600000000     0          
T        Si     0.470233333333     0.879600000000     0.321000000000     0          
T        Si     0.500000000000     0.907666666667     0.125000000000     0          
T        Si     0.343833333333     0.666666666667     0.250000000000     0          
O        O      0.572400000000     0.668666666667     0.078450000000     0          
O        O      0.612733333333     0.981900000000     0.146000000000     0          
O        O      0.547333333333     0.935166666667     0.112300000000     0          
O        O      0.639366666667     0.941966666667     0.084000000000     0          
O        O      0.620233333333     0.966266666667     0.480450000000     0          
O        O      0.564200000000     0.919366666667     0.434950000000     0          
O        O      0.650600000000     0.953100000000     0.410900000000     0          
O        O      0.525300000000     0.854300000000     0.468250000000     0          
T        Si     0.593700000000     0.965900000000     0.104850000000     0          
T        Si     0.600766666667     0.958233333333     0.437400000000     0          
T        Si     0.529766666667     0.879600000000     0.429000000000     0          
O        O      0.427600000000     0.998000000000     0.328450000000     0          
O        O      0.387266666667     0.684766666667     0.396000000000     0          
O        O      0.452666666667     0.731500000000     0.362300000000     0          
O        O      0.360633333333     0.724700000000     0.334000000000     0          
O        O      0.379766666667     0.700400000000     0.230450000000     0          
O        O      0.435800000000     0.747300000000     0.184950000000     0          
O        O      0.349400000000     0.713566666667     0.160900000000     0          
O        O      0.474700000000     0.812366666667     0.218250000000     0          
T        Si     0.406300000000     0.700766666667     0.354850000000     0          
T        Si     0.399233333333     0.708433333333     0.187400000000     0          
T        Si     0.470233333333     0.787066666667     0.179000000000     0          
O        O      0.405733333333     0.831333333333     0.421550000000     0          
O        O      0.446066666667     0.851433333333     0.354000000000     0          
O        O      0.380666666667     0.898166666667     0.387700000000     0          
O        O      0.472700000000     0.891366666667     0.416000000000     0          
O        O      0.453566666667     0.867066666667     0.019550000000     0          
O        O      0.397533333333     0.913966666667     0.065050000000     0          
O        O      0.483933333333     0.880233333333     0.089100000000     0          
O        O      0.358633333333     0.979033333333     0.031750000000     0          
T        Si     0.427033333333     0.867433333333     0.395150000000     0          
T        Si     0.434100000000     0.875100000000     0.062600000000     0          
T        Si     0.363100000000     0.953733333333     0.071000000000     0          
T        Si     0.333333333333     0.925666666667     0.375000000000     0          
T        Si     0.489500000000     0.833333333333     0.000000000000     0          
O        O      0.594266666667     0.835333333333     0.171550000000     0          
O        O      0.553933333333     0.815233333333     0.104000000000     0          
O        O      0.619333333333     0.768500000000     0.137700000000     0          
O        O      0.527300000000     0.775300000000     0.166000000000     0          
O        O      0.546433333333     0.799600000000     0.269550000000     0          
O        O      0.602466666667     0.752700000000     0.315050000000     0          
O        O      0.516066666667     0.786433333333     0.339100000000     0          
O        O      0.641366666667     0.687633333333     0.281750000000     0          
T        Si     0.572966666667     0.799233333333     0.145150000000     0          
T        Si     0.565900000000     0.791566666667     0.312600000000     0          
T        Si     0.636900000000     0.712933333333     0.321000000000     0          
T        Si     0.333333333333     0.741000000000     0.125000000000     0          
T        Si     0.510500000000     0.833333333333     0.250000000000     0          
O        O      0.405733333333     0.835333333333     0.078450000000     0          
O        O      0.446066666667     0.815233333333     0.146000000000     0          
O        O      0.380666666667     0.768500000000     0.112300000000     0          
O        O      0.472700000000     0.775300000000     0.084000000000     0          
O        O      0.453566666667     0.799600000000     0.480450000000     0          
O        O      0.397533333333     0.752700000000     0.434950000000     0          
O        O      0.483933333333     0.786433333333     0.410900000000     0          
O        O      0.358633333333     0.687633333333     0.468250000000     0          
T        Si     0.427033333333     0.799233333333     0.104850000000     0          
T        Si     0.434100000000     0.791566666667     0.437400000000     0          
T        Si     0.363100000000     0.712933333333     0.429000000000     0          
O        O      0.594266666667     0.831333333333     0.328450000000     0          
O        O      0.553933333333     0.851433333333     0.396000000000     0          
O        O      0.619333333333     0.898166666667     0.362300000000     0          
O        O      0.527300000000     0.891366666667     0.334000000000     0          
O        O      0.546433333333     0.867066666667     0.230450000000     0          
O        O      0.602466666667     0.913966666667     0.184950000000     0          
O        O      0.516066666667     0.880233333333     0.160900000000     0          
O        O      0.641366666667     0.979033333333     0.218250000000     0          
T        Si     0.572966666667     0.867433333333     0.354850000000     0          
T        Si     0.565900000000     0.875100000000     0.187400000000     0          
T        Si     0.636900000000     0.953733333333     0.179000000000     0          
O        O      0.572400000000     0.998000000000     0.921550000000     0          
O        O      0.612733333333     0.684766666667     0.854000000000     0          
O        O      0.547333333333     0.731500000000     0.887700000000     0          
O        O      0.639366666667     0.724700000000     0.916000000000     0          
O        O      0.620233333333     0.700400000000     0.519550000000     0          
O        O      0.564200000000     0.747300000000     0.565050000000     0          
O        O      0.650600000000     0.713566666667     0.589100000000     0          
O        O      0.525300000000     0.812366666667     0.531750000000     0          
T        Si     0.593700000000     0.700766666667     0.895150000000     0          
T        Si     0.600766666667     0.708433333333     0.562600000000     0          
T        Si     0.529766666667     0.787066666667     0.571000000000     0          
T        Si     0.500000000000     0.759000000000     0.875000000000     0          
T        Si     0.656166666667     0.666666666667     0.500000000000     0          
O        O      0.427600000000     0.668666666667     0.671550000000     0          
O        O      0.387266666667     0.981900000000     0.604000000000     0          
O        O      0.452666666667     0.935166666667     0.637700000000     0          
O        O      0.360633333333     0.941966666667     0.666000000000     0          
O        O      0.379766666667     0.966266666667     0.769550000000     0          
O        O      0.435800000000     0.919366666667     0.815050000000     0          
O        O      0.349400000000     0.953100000000     0.839100000000     0          
O        O      0.474700000000     0.854300000000     0.781750000000     0          
T        Si     0.406300000000     0.965900000000     0.645150000000     0          
T        Si     0.399233333333     0.958233333333     0.812600000000     0          
T        Si     0.470233333333     0.879600000000     0.821000000000     0          
T        Si     0.500000000000     0.907666666667     0.625000000000     0          
T        Si     0.343833333333     0.666666666667     0.750000000000     0          
O        O      0.572400000000     0.668666666667     0.578450000000     0          
O        O      0.612733333333     0.981900000000     0.646000000000     0          
O        O      0.547333333333     0.935166666667     0.612300000000     0          
O        O      0.639366666667     0.941966666667     0.584000000000     0          
O        O      0.620233333333     0.966266666667     0.980450000000     0          
O        O      0.564200000000     0.919366666667     0.934950000000     0          
O        O      0.650600000000     0.953100000000     0.910900000000     0          
O        O      0.525300000000     0.854300000000     0.968250000000     0          
T        Si     0.593700000000     0.965900000000     0.604850000000     0          
T        Si     0.600766666667     0.958233333333     0.937400000000     0          
T        Si     0.529766666667     0.879600000000     0.929000000000     0          
O        O      0.427600000000     0.998000000000     0.828450000000     0          
O        O      0.387266666667     0.684766666667     0.896000000000     0          
O        O      0.452666666667     0.731500000000     0.862300000000     0          
O        O      0.360633333333     0.724700000000     0.834000000000     0          
O        O      0.379766666667     0.700400000000     0.730450000000     0          
O        O      0.435800000000     0.747300000000     0.684950000000     0          
O        O      0.349400000000     0.713566666667     0.660900000000     0          
O        O      0.474700000000     0.812366666667     0.718250000000     0          
T        Si     0.406300000000     0.700766666667     0.854850000000     0          
T        Si     0.399233333333     0.708433333333     0.687400000000     0          
T        Si     0.470233333333     0.787066666667     0.679000000000     0          
O        O      0.405733333333     0.831333333333     0.921550000000     0          
O        O      0.446066666667     0.851433333333     0.854000000000     0          
O        O      0.380666666667     0.898166666667     0.887700000000     0          
O        O      0.472700000000     0.891366666667     0.916000000000     0          
O        O      0.453566666667     0.867066666667     0.519550000000     0          
O        O      0.397533333333     0.913966666667     0.565050000000     0          
O        O      0.483933333333     0.880233333333     0.589100000000     0          
O        O      0.358633333333     0.979033333333     0.531750000000     0          
T        Si     0.427033333333     0.867433333333     0.895150000000     0          
T        Si     0.434100000000     0.875100000000     0.562600000000     0          
T        Si     0.363100000000     0.953733333333     0.571000000000     0          
T        Si     0.333333333333     0.925666666667     0.875000000000     0          
T        Si     0.489500000000     0.833333333333     0.500000000000     0          
O        O      0.594266666667     0.835333333333     0.671550000000     0          
O        O      0.553933333333     0.815233333333     0.604000000000     0          
O        O      0.619333333333     0.768500000000     0.637700000000     0          
O        O      0.527300000000     0.775300000000     0.666000000000     0          
O        O      0.546433333333     0.799600000000     0.769550000000     0          
O        O      0.602466666667     0.752700000000     0.815050000000     0          
O        O      0.516066666667     0.786433333333     0.839100000000     0          
O        O      0.641366666667     0.687633333333     0.781750000000     0          
T        Si     0.572966666667     0.799233333333     0.645150000000     0          
T        Si     0.565900000000     0.791566666667     0.812600000000     0          
T        Si     0.636900000000     0.712933333333     0.821000000000     0          
T        Si     0.333333333333     0.741000000000     0.625000000000     0          
T        Si     0.510500000000     0.833333333333     0.750000000000     0          
O        O      0.405733333333     0.835333333333     0.578450000000     0          
O        O      0.446066666667     0.815233333333     0.646000000000     0          
O        O      0.380666666667     0.768500000000     0.612300000000     0          
O        O      0.472700000000     0.775300000000     0.584000000000     0          
O        O      0.453566666667     0.799600000000     0.980450000000     0          
O        O      0.397533333333     0.752700000000     0.934950000000     0          
O        O      0.483933333333     0.786433333333     0.910900000000     0          
O        O      0.358633333333     0.687633333333     0.968250000000     0          
T        Si     0.427033333333     0.799233333333     0.604850000000     0          
T        Si     0.434100000000     0.791566666667     0.937400000000     0          
T        Si     0.363100000000     0.712933333333     0.929000000000     0          
O        O      0.594266666667     0.831333333333     0.828450000000     0          
O        O      0.553933333333     0.851433333333     0.896000000000     0          
O        O      0.619333333333     0.898166666667     0.862300000000     0          
O        O      0.527300000000     0.891366666667     0.834000000000     0          
O        O      0.546433333333     0.867066666667     0.730450000000     0          
O        O      0.602466666667     0.913966666667     0.684950000000     0          
O        O      0.516066666667     0.880233333333     0.660900000000     0          
O        O      0.641366666667     0.979033333333     0.718250000000     0          
T        Si     0.572966666667     0.867433333333     0.854850000000     0          
T        Si     0.565900000000     0.875100000000     0.687400000000     0          
T        Si     0.636900000000     0.953733333333     0.679000000000     0          
O        O      0.905733333333     0.331333333333     0.421550000000     0          
O        O      0.946066666667     0.018100000000     0.354000000000     0          
O        O      0.880666666667     0.064833333333     0.387700000000     0          
O        O      0.972700000000     0.058033333333     0.416000000000     0          
O        O      0.953566666667     0.033733333333     0.019550000000     0          
O        O      0.897533333333     0.080633333333     0.065050000000     0          
O        O      0.983933333333     0.046900000000     0.089100000000     0          
O        O      0.858633333333     0.145700000000     0.031750000000     0          
T        Si     0.927033333333     0.034100000000     0.395150000000     0          
T        Si     0.934100000000     0.041766666667     0.062600000000     0          
T        Si     0.863100000000     0.120400000000     0.071000000000     0          
T        Si     0.833333333333     0.092333333333     0.375000000000     0          
T        Si     0.989500000000     0.000000000000     0.000000000000     0          
O        O      0.760933333333     0.002000000000     0.171550000000     0          
O        O      0.720600000000     0.315233333333     0.104000000000     0          
O        O      0.786000000000     0.268500000000     0.137700000000     0          
O        O      0.693966666667     0.275300000000     0.166000000000     0          
O        O      0.713100000000     0.299600000000     0.269550000000     0          
O        O      0.769133333333     0.252700000000     0.315050000000     0          
O        O      0.682733333333     0.286433333333     0.339100000000     0          
O        O      0.808033333333     0.187633333333     0.281750000000     0          
T        Si     0.739633333333     0.299233333333     0.145150000000     0          
T        Si     0.732566666667     0.291566666667     0.312600000000     0          
T        Si     0.803566666667     0.212933333333     0.321000000000     0          
T        Si     0.833333333333     0.241000000000     0.125000000000     0          
T        Si     0.677166666667     0.000000000000     0.250000000000     0          
O        O      0.905733333333     0.002000000000     0.078450000000     0          
O        O      0.946066666667     0.315233333333     0.146000000000     0          
O        O      0.880666666667     0.268500000000     0.112300000000     0          
O        O      0.972700000000     0.275300000000     0.084000000000     0          
O        O      0.953566666667     0.299600000000     0.480450000000     0          
O        O      0.897533333333     0.252700000000     0.434950000000     0          
O        O      0.983933333333     0.286433333333     0.410900000000     0          
O        O      0.858633333333     0.187633333333     0.468250000000     0          
T        Si     0.927033333333     0.299233333333     0.104850000000     0          
T        Si     0.934100000000     0.291566666667     0.437400000000     0          
T        Si     0.863100000000     0.212933333333     0.429000000000     0          
O        O      0.760933333333     0.331333333333     0.328450000000     0          
O        O      0.720600000000     0.018100000000     0.396000000000     0          
O        O      0.786000000000     0.064833333333     0.362300000000     0          
O        O      0.693966666667     0.058033333333     0.334000000000     0          
O        O      0.713100000000     0.033733333333     0.230450000000     0          
O        O      0.769133333333     0.080633333333     0.184950000000     0          
O        O      0.682733333333     0.046900000000     0.160900000000     0          
O        O      0.808033333333     0.145700000000     0.218250000000     0          
T        Si     0.739633333333     0.034100000000     0.354850000000     0          
T        Si     0.732566666667     0.041766666667     0.187400000000     0          
T        Si     0.803566666667     0.120400000000     0.179000000000     0          
O        O      0.739066666667     0.164666666667     0.421550000000     0          
O        O      0.779400000000     0.184766666667     0.354000000000     0          
O        O      0.714000000000     0.231500000000     0.387700000000     0          
O        O      0.806033333333     0.224700000000     0.416000000000     0          
O        O      0.786900000000     0.200400000000     0.019550000000     0          
O        O      0.730866666667     0.247300000000     0.065050000000     0          
O        O      0.817266666667     0.213566666667     0.089100000000     0          
O        O      0.691966666667     0.312366666667     0.031750000000     0          
T        Si     0.760366666667     0.200766666667     0.395150000000     0          
T        Si     0.767433333333     0.208433333333     0.062600000000     0          
T        Si     0.696433333333     0.287066666667     0.071000000000     0          
T        Si     0.666666666667     0.259000000000     0.375000000000     0          
T        Si     0.822833333333     0.166666666667     0.000000000000     0          
O        O      0.927600000000     0.168666666667     0.171550000000     0          
O        O      0.887266666667     0.148566666667     0.104000000000     0          
O        O      0.952666666667     0.101833333333     0.137700000000     0          
O        O      0.860633333333     0.108633333333     0.166000000000     0          
O        O      0.879766666667     0.132933333333     0.269550000000     0          
O        O      0.935800000000     0.086033333333     0.315050000000     0          
O        O      0.849400000000     0.119766666667     0.339100000000     0          
O        O      0.974700000000     0.020966666667     0.281750000000     0          
T        Si     0.906300000000     0.132566666667     0.145150000000     0          
T        Si     0.899233333333     0.124900000000     0.312600000000     0          
T        Si     0.970233333333     0.046266666667     0.321000000000     0          
T        Si     0.666666666667     0.074333333333     0.125000000000     0          
T        Si     0.843833333333     0.166666666667     0.250000000000     0          
O        O      0.739066666667     0.168666666667     0.078450000000     0          
O        O      0.779400000000     0.148566666667     0.146000000000     0          
O        O      0.714000000000     0.101833333333     0.112300000000     0          
O        O      0.806033333333     0.108633333333     0.084000000000     0          
O        O      0.786900000000     0.132933333333     0.480450000000     0          
O        O      0.730866666667     0.086033333333     0.434950000000     0          
O        O      0.817266666667     0.119766666667     0.410900000000     0          
O        O      0.691966666667     0.020966666667     0.468250000000     0          
T        Si     0.760366666667     0.132566666667     0.104850000000     0          
T        Si     0.767433333333     0.124900000000     0.437400000000     0          
T        Si     0.696433333333     0.046266666667     0.429000000000     0          
O        O      0.927600000000     0.164666666667     0.328450000000     0          
O        O      0.887266666667     0.184766666667     0.396000000000     0          
O        O      0.952666666667     0.231500000000     0.362300000000     0          
O        O      0.860633333333     0.224700000000     0.334000000000     0          
O        O      0.879766666667     0.200400000000     0.230450000000     0          
O        O      0.935800000000     0.247300000000     0.184950000000     0          
O        O      0.849400000000     0.213566666667     0.160900000000     0          
O        O      0.974700000000     0.312366666667     0.218250000000     0          
T        Si     0.906300000000     0.200766666667     0.354850000000     0          
T        Si     0.899233333333     0.208433333333     0.187400000000     0          
T        Si     0.970233333333     0.287066666667     0.179000000000     0          
O        O      0.905733333333     0.331333333333     0.921550000000     0          
O        O      0.946066666667     0.018100000000     0.854000000000     0          
O        O      0.880666666667     0.064833333333     0.887700000000     0          
O        O      0.972700000000     0.058033333333     0.916000000000     0          
O        O      0.953566666667     0.033733333333     0.519550000000     0          
O        O      0.897533333333     0.080633333333     0.565050000000     0          
O        O      0.983933333333     0.046900000000     0.589100000000     0          
O        O      0.858633333333     0.145700000000     0.531750000000     0          
T        Si     0.927033333333     0.034100000000     0.895150000000     0          
T        Si     0.934100000000     0.041766666667     0.562600000000     0          
T        Si     0.863100000000     0.120400000000     0.571000000000     0          
T        Si     0.833333333333     0.092333333333     0.875000000000     0          
T        Si     0.989500000000     0.000000000000     0.500000000000     0          
O        O      0.760933333333     0.002000000000     0.671550000000     0          
O        O      0.720600000000     0.315233333333     0.604000000000     0          
O        O      0.786000000000     0.268500000000     0.637700000000     0          
O        O      0.693966666667     0.275300000000     0.666000000000     0          
O        O      0.713100000000     0.299600000000     0.769550000000     0          
O        O      0.769133333333     0.252700000000     0.815050000000     0          
O        O      0.682733333333     0.286433333333     0.839100000000     0          
O        O      0.808033333333     0.187633333333     0.781750000000     0          
T        Si     0.739633333333     0.299233333333     0.645150000000     0          
T        Si     0.732566666667     0.291566666667     0.812600000000     0          
T        Si     0.803566666667     0.212933333333     0.821000000000     0          
T        Si     0.833333333333     0.241000000000     0.625000000000     0          
T        Si     0.677166666667     0.000000000000     0.750000000000     0          
O        O      0.905733333333     0.002000000000     0.578450000000     0          
O        O      0.946066666667     0.315233333333     0.646000000000     0          
O        O      0.880666666667     0.268500000000     0.612300000000     0          
O        O      0.972700000000     0.275300000000     0.584000000000     0          
O        O      0.953566666667     0.299600000000     0.980450000000     0          
O        O      0.897533333333     0.252700000000     0.934950000000     0          
O        O      0.983933333333     0.286433333333     0.910900000000     0          
O        O      0.858633333333     0.187633333333     0.968250000000     0          
T        Si     0.927033333333     0.299233333333     0.604850000000     0          
T        Si     0.934100000000     0.291566666667     0.937400000000     0          
T        Si     0.863100000000     0.212933333333     0.929000000000     0          
O        O      0.760933333333     0.331333333333     0.828450000000     0          
O        O      0.720600000000     0.018100000000     0.896000000000     0          
O        O      0.786000000000     0.064833333333     0.862300000000     0          
O        O      0.693966666667     0.058033333333     0.834000000000     0          
O        O      0.713100000000     0.033733333333     0.730450000000     0          
O        O      0.769133333333     0.080633333333     0.684950000000     0          
O        O      0.682733333333     0.046900000000     0.660900000000     0          
O        O      0.808033333333     0.145700000000     0.718250000000     0          
T        Si     0.739633333333     0.034100000000     0.854850000000     0          
T        Si     0.732566666667     0.041766666667     0.687400000000     0          
T        Si     0.803566666667     0.120400000000     0.679000000000     0          
O        O      0.739066666667     0.164666666667     0.921550000000     0          
O        O      0.779400000000     0.184766666667     0.854000000000     0          
O        O      0.714000000000     0.231500000000     0.887700000000     0          
O        O      0.806033333333     0.224700000000     0.916000000000     0          
O        O      0.786900000000     0.200400000000     0.519550000000     0          
O        O      0.730866666667     0.247300000000     0.565050000000     0          
O        O      0.817266666667     0.213566666667     0.589100000000     0          
O        O      0.691966666667     0.312366666667     0.531750000000     0          
T        Si     0.760366666667     0.200766666667     0.895150000000     0          
T        Si     0.767433333333     0.208433333333     0.562600000000     0          
T        Si     0.696433333333     0.287066666667     0.571000000000     0          
T        Si     0.666666666667     0.259000000000     0.875000000000     0          
T        Si     0.822833333333     0.166666666667     0.500000000000     0          
O        O      0.927600000000     0.168666666667     0.671550000000     0          
O        O      0.887266666667     0.148566666667     0.604000000000     0          
O        O      0.952666666667     0.101833333333     0.637700000000     0          
O        O      0.860633333333     0.108633333333     0.666000000000     0          
O        O      0.879766666667     0.132933333333     0.769550000000     0          
O        O      0.935800000000     0.086033333333     0.815050000000     0          
O        O      0.849400000000     0.119766666667     0.839100000000     0          
O        O      0.974700000000     0.020966666667     0.781750000000     0          
T        Si     0.906300000000     0.132566666667     0.645150000000     0          
T        Si     0.899233333333     0.124900000000     0.812600000000     0          
T        Si     0.970233333333     0.046266666667     0.821000000000     0          
T        Si     0.666666666667     0.074333333333     0.625000000000     0          
T        Si     0.843833333333     0.166666666667     0.750000000000     0          
O        O      0.739066666667     0.168666666667     0.578450000000     0          
O        O      0.779400000000     0.148566666667     0.646000000000     0          
O        O      0.714000000000     0.101833333333     0.612300000000     0          
O        O      0.806033333333     0.108633333333     0.584000000000     0          
O        O      0.786900000000     0.132933333333     0.980450000000     0          
O        O      0.730866666667     0.086033333333     0.934950000000     0          
O        O      0.817266666667     0.119766666667     0.910900000000     0          
O        O      0.691966666667     0.020966666667     0.968250000000     0          
T        Si     0.760366666667     0.132566666667     0.604850000000     0          
T        Si     0.767433333333     0.124900000000     0.937400000000     0          
T        Si     0.696433333333     0.046266666667     0.929000000000     0          
O        O      0.927600000000     0.164666666667     0.828450000000     0          
O        O      0.887266666667     0.184766666667     0.896000000000     0          
O        O      0.952666666667     0.231500000000     0.862300000000     0          
O        O      0.860633333333     0.224700000000     0.834000000000     0          
O        O      0.879766666667     0.200400000000     0.730450000000     0          
O        O      0.935800000000     0.247300000000     0.684950000000     0          
O        O      0.849400000000     0.213566666667     0.660900000000     0          
O        O      0.974700000000     0.312366666667     0.718250000000     0          
T        Si     0.906300000000     0.200766666667     0.854850000000     0          
T        Si     0.899233333333     0.208433333333     0.687400000000     0          
T        Si     0.970233333333     0.287066666667     0.679000000000     0          
O        O      0.905733333333     0.664666666667     0.421550000000     0          
O        O      0.946066666667     0.351433333333     0.354000000000     0          
O        O      0.880666666667     0.398166666667     0.387700000000     0          
O        O      0.972700000000     0.391366666667     0.416000000000     0          
O        O      0.953566666667     0.367066666667     0.019550000000     0          
O        O      0.897533333333     0.413966666667     0.065050000000     0          
O        O      0.983933333333     0.380233333333     0.089100000000     0          
O        O      0.858633333333     0.479033333333     0.031750000000     0          
T        Si     0.927033333333     0.367433333333     0.395150000000     0          
T        Si     0.934100000000     0.375100000000     0.062600000000     0          
T        Si     0.863100000000     0.453733333333     0.071000000000     0          
T        Si     0.833333333333     0.425666666667     0.375000000000     0          
T        Si     0.989500000000     0.333333333333     0.000000000000     0          
O        O      0.760933333333     0.335333333333     0.171550000000     0          
O        O      0.720600000000     0.648566666667     0.104000000000     0          
O        O      0.786000000000     0.601833333333     0.137700000000     0          
O        O      0.693966666667     0.608633333333     0.166000000000     0          
O        O      0.713100000000     0.632933333333     0.269550000000     0          
O        O      0.769133333333     0.586033333333     0.315050000000     0          
O        O      0.682733333333     0.619766666667     0.339100000000     0          
O        O      0.808033333333     0.520966666667     0.281750000000     0          
T        Si     0.739633333333     0.632566666667     0.145150000000     0          
T        Si     0.732566666667     0.624900000000     0.312600000000     0          
T        Si     0.803566666667     0.546266666667     0.321000000000     0          
T        Si     0.833333333333     0.574333333333     0.125000000000     0          
T        Si     0.677166666667     0.333333333333     0.250000000000     0          
O        O      0.905733333333     0.335333333333     0.078450000000     0          
O        O      0.946066666667     0.648566666667     0.146000000000     0          
O        O      0.880666666667     0.601833333333     0.112300000000     0          
O        O      0.972700000000     0.608633333333     0.084000000000     0          
O        O      0.953566666667     0.632933333333     0.480450000000     0          
O        O      0.897533333333     0.586033333333     0.434950000000     0          
O        O      0.983933333333     0.619766666667     0.410900000000     0          
O        O      0.858633333333     0.520966666667     0.468250000000     0          
T        Si     0.927033333333     0.632566666667     0.104850000000     0          
T        Si     0.934100000000     0.624900000000     0.437400000000     0          
T        Si     0.863100000000     0.546266666667     0.429000000000     0          
O        O      0.760933333333     0.664666666667     0.328450000000     0          
O        O      0.720600000000     0.351433333333     0.396000000000     0          
O        O      0.786000000000     0.398166666667     0.362300000000     0          
O        O      0.693966666667     0.391366666667     0.334000000000     0          
O        O      0.713100000000     0.367066666667     0.230450000000     0          
O        O      0.769133333333     0.413966666667     0.184950000000     0          
O        O      0.682733333333     0.380233333333     0.160900000000     0          
O        O      0.808033333333     0.479033333333     0.218250000000     0          
T        Si     0.739633333333     0.367433333333     0.354850000000     0          
T        Si     0.732566666667     0.375100000000     0.187400000000     0          
T        Si     0.803566666667     0.453733333333     0.179000000000     0          
O        O      0.739066666667     0.498000000000     0.421550000000     0          
O        O      0.779400000000     0.518100000000     0.354000000000     0          
O        O      0.714000000000     0.564833333333     0.387700000000     0          
O        O      0.806033333333     0.558033333333     0.416000000000     0          
O        O      0.786900000000     0.533733333333     0.019550000000     0          
O        O      0.730866666667     0.580633333333     0.065050000000     0          
O        O      0.817266666667     0.546900000000     0.089100000000     0          
O        O      0.691966666667     0.645700000000     0.031750000000     0          
T        Si     0.760366666667     0.534100000000     0.395150000000     0          
T        Si     0.767433333333     0.541766666667     0.062600000000     0          
T        Si     0.696433333333     0.620400000000     0.071000000000     0          
T        Si     0.666666666667     0.592333333333     0.375000000000     0          
T        Si     0.822833333333     0.500000000000     0.000000000000     0          
O        O      0.927600000000     0.502000000000     0.171550000000     0          
O        O      0.887266666667     0.481900000000     0.104000000000     0          
O        O      0.952666666667     0.435166666667     0.137700000000     0          
O        O      0.860633333333     0.441966666667     0.166000000000     0          
O        O      0.879766666667     0.466266666667     0.269550000000     0          
O        O      0.935800000000     0.419366666667     0.315050000000     0          
O        O      0.849400000000     0.453100000000     0.339100000000     0          
O        O      0.974700000000     0.354300000000     0.281750000000     0          
T        Si     0.906300000000     0.465900000000     0.145150000000     0          
T        Si     0.899233333333     0.458233333333     0.312600000000     0          
T        Si     0.970233333333     0.379600000000     0.321000000000     0          
T        Si     0.666666666667     0.407666666667     0.125000000000     0          
T        Si     0.843833333333     0.500000000000     0.250000000000     0          
O        O      0.739066666667     0.502000000000     0.078450000000     0          
O        O      0.779400000000     0.481900000000     0.146000000000     0          
O        O      0.714000000000     0.435166666667     0.112300000000     0          
O        O      0.806033333333     0.441966666667     0.084000000000     0          
O        O      0.786900000000     0.466266666667     0.480450000000     0          
O        O      0.730866666667     0.419366666667     0.434950000000     0          
O        O      0.817266666667     0.453100000000     0.410900000000     0          
O        O      0.691966666667     0.354300000000     0.468250000000     0          
T        Si     0.760366666667     0.465900000000     0.104850000000     0          
T        Si     0.767433333333     0.458233333333     0.437400000000     0          
T        Si     0.696433333333     0.379600000000     0.429000000000     0          
O        O      0.927600000000     0.498000000000     0.328450000000     0          
O        O      0.887266666667     0.518100000000     0.396000000000     0          
O        O      0.952666666667     0.564833333333     0.362300000000     0          
O        O      0.860633333333     0.558033333333     0.334000000000     0          
O        O      0.879766666667     0.533733333333     0.230450000000     0          
O        O      0.935800000000     0.580633333333     0.184950000000     0          
O        O      0.849400000000     0.546900000000     0.160900000000     0          
O        O      0.974700000000     0.645700000000     0.218250000000     0          
T        Si     0.906300000000     0.534100000000     0.354850000000     0          
T        Si     0.899233333333     0.541766666667     0.187400000000     0          
T        Si     0.970233333333     0.620400000000     0.179000000000     0          
O        O      0.905733333333     0.664666666667     0.921550000000     0          
O        O      0.946066666667     0.351433333333     0.854000000000     0          
O        O      0.880666666667     0.398166666667     0.887700000000     0          
O        O      0.972700000000     0.391366666667     0.916000000000     0          
O        O      0.953566666667     0.367066666667     0.519550000000     0          
O        O      0.897533333333     0.413966666667     0.565050000000     0          
O        O      0.983933333333     0.380233333333     0.589100000000     0          
O        O      0.858633333333     0.479033333333     0.531750000000     0          
T        Si     0.927033333333     0.367433333333     0.895150000000     0          
T        Si     0.934100000000     0.375100000000     0.562600000000     0          
T        Si     0.863100000000     0.453733333333     0.571000000000     0          
T        Si     0.833333333333     0.425666666667     0.875000000000     0          
T        Si     0.989500000000     0.333333333333     0.500000000000     0          
O        O      0.760933333333     0.335333333333     0.671550000000     0          
O        O      0.720600000000     0.648566666667     0.604000000000     0          
O        O      0.786000000000     0.601833333333     0.637700000000     0          
O        O      0.693966666667     0.608633333333     0.666000000000     0          
O        O      0.713100000000     0.632933333333     0.769550000000     0          
O        O      0.769133333333     0.586033333333     0.815050000000     0          
O        O      0.682733333333     0.619766666667     0.839100000000     0          
O        O      0.808033333333     0.520966666667     0.781750000000     0          
T        Si     0.739633333333     0.632566666667     0.645150000000     0          
T        Si     0.732566666667     0.624900000000     0.812600000000     0          
T        Si     0.803566666667     0.546266666667     0.821000000000     0          
T        Si     0.833333333333     0.574333333333     0.625000000000     0          
T        Si     0.677166666667     0.333333333333     0.750000000000     0          
O        O      0.905733333333     0.335333333333     0.578450000000     0          
O        O      0.946066666667     0.648566666667     0.646000000000     0          
O        O      0.880666666667     0.601833333333     0.612300000000     0          
O        O      0.972700000000     0.608633333333     0.584000000000     0          
O        O      0.953566666667     0.632933333333     0.980450000000     0          
O        O      0.897533333333     0.586033333333     0.934950000000     0          
O        O      0.983933333333     0.619766666667     0.910900000000     0          
O        O      0.858633333333     0.520966666667     0.968250000000     0          
T        Si     0.927033333333     0.632566666667     0.604850000000     0          
T        Si     0.934100000000     0.624900000000     0.937400000000     0          
T        Si     0.863100000000     0.546266666667     0.929000000000     0          
O        O      0.760933333333     0.664666666667     0.828450000000     0          
O        O      0.720600000000     0.351433333333     0.896000000000     0          
O        O      0.786000000000     0.398166666667     0.862300000000     0          
O        O      0.693966666667     0.391366666667     0.834000000000     0          
O        O      0.713100000000     0.367066666667     0.730450000000     0          
O        O      0.769133333333     0.413966666667     0.684950000000     0          
O        O      0.682733333333     0.380233333333     0.660900000000     0          
O        O      0.808033333333     0.479033333333     0.718250000000     0          
T        Si     0.739633333333     0.367433333333     0.854850000000     0          
T        Si     0.732566666667     0.375100000000     0.687400000000     0          
T        Si     0.803566666667     0.453733333333     0.679000000000     0          
O        O      0.739066666667     0.498000000000     0.921550000000     0          
O        O      0.779400000000     0.518100000000     0.854000000000     0          
O        O      0.714000000000     0.564833333333     0.887700000000     0          
O        O      0.806033333333     0.558033333333     0.916000000000     0          
O        O      0.786900000000     0.533733333333     0.519550000000     0          
O        O      0.730866666667     0.580633333333     0.565050000000     0          
O        O      0.817266666667     0.546900000000     0.589100000000     0          
O        O      0.691966666667     0.645700000000     0.531750000000     0          
T        Si     0.760366666667     0.534100000000     0.895150000000     0          
T        Si     0.767433333333     0.541766666667     0.562600000000     0          
T        Si     0.696433333333     0.620400000000     0.571000000000     0          
T        Si     0.666666666667     0.592333333333     0.875000000000     0          
T        Si     0.822833333333     0.500000000000     0.500000000000     0          
O        O      0.927600000000     0.502000000000     0.671550000000     0          
O        O      0.887266666667     0.481900000000     0.604000000000     0          
O        O      0.952666666667     0.435166666667     0.637700000000     0          
O        O      0.860633333333     0.441966666667     0.666000000000     0          
O        O      0.879766666667     0.466266666667     0.769550000000     0          
O        O      0.935800000000     0.419366666667     0.815050000000     0          
O        O      0.849400000000     0.453100000000     0.839100000000     0          
O        O      0.974700000000     0.354300000000     0.781750000000     0          
T        Si     0.906300000000     0.465900000000     0.645150000000     0          
T        Si     0.899233333333     0.458233333333     0.812600000000     0          
T        Si     0.970233333333     0.379600000000     0.821000000000     0          
T        Si     0.666666666667     0.407666666667     0.625000000000     0          
T        Si     0.843833333333     0.500000000000     0.750000000000     0          
O        O      0.739066666667     0.502000000000     0.578450000000     0          
O        O      0.779400000000     0.481900000000     0.646000000000     0          
O        O      0.714000000000     0.435166666667     0.612300000000     0          
O        O      0.806033333333     0.441966666667     0.584000000000     0          
O        O      0.786900000000     0.466266666667     0.980450000000     0          
O        O      0.730866666667     0.419366666667     0.934950000000     0          
O        O      0.817266666667     0.453100000000     0.910900000000     0          
O        O      0.691966666667     0.354300000000     0.968250000000     0          
T        Si     0.760366666667     0.465900000000     0.604850000000     0          
T        Si     0.767433333333     0.458233333333     0.937400000000     0          
T        Si     0.696433333333     0.379600000000     0.929000000000     0          
O        O      0.927600000000     0.498000000000     0.828450000000     0          
O        O      0.887266666667     0.518100000000     0.896000000000     0          
O        O      0.952666666667     0.564833333333     0.862300000000     0          
O        O      0.860633333333     0.558033333333     0.834000000000     0          
O        O      0.879766666667     0.533733333333     0.730450000000     0          
O        O      0.935800000000     0.580633333333     0.684950000000     0          
O        O      0.849400000000     0.546900000000     0.660900000000     0          
O        O      0.974700000000     0.645700000000     0.718250000000     0          
T        Si     0.906300000000     0.534100000000     0.854850000000     0          
T        Si     0.899233333333     0.541766666667     0.687400000000     0          
T        Si     0.970233333333     0.620400000000     0.679000000000     0          
O        O      0.905733333333     0.998000000000     0.421550000000     0          
O        O      0.946066666667     0.684766666667     0.354000000000     0          
O        O      0.880666666667     0.731500000000     0.387700000000     0          
O        O      0.972700000000     0.724700000000     0.416000000000     0          
O        O      0.953566666667     0.700400000000     0.019550000000     0          
O        O      0.897533333333     0.747300000000     0.065050000000     0          
O        O      0.983933333333     0.713566666667     0.089100000000     0          
O        O      0.858633333333     0.812366666667     0.031750000000     0          
T        Si     0.927033333333     0.700766666667     0.395150000000     0          
T        Si     0.934100000000     0.708433333333     0.062600000000     0          
T        Si     0.863100000000     0.787066666667     0.071000000000     0          
T        Si     0.833333333333     0.759000000000     0.375000000000     0          
T        Si     0.989500000000     0.666666666667     0.000000000000     0          
O        O      0.760933333333     0.668666666667     0.171550000000     0          
O        O      0.720600000000     0.981900000000     0.104000000000     0          
O        O      0.786000000000     0.935166666667     0.137700000000     0          
O        O      0.693966666667     0.941966666667     0.166000000000     0          
O        O      0.713100000000     0.966266666667     0.269550000000     0          
O        O      0.769133333333     0.919366666667     0.315050000000     0          
O        O      0.682733333333     0.953100000000     0.339100000000     0          
O        O      0.808033333333     0.854300000000     0.281750000000     0          
T        Si     0.739633333333     0.965900000000     0.145150000000     0          
T        Si     0.732566666667     0.958233333333     0.312600000000     0          
T        Si     0.803566666667     0.879600000000     0.321000000000     0          
T        Si     0.833333333333     0.907666666667     0.125000000000     0          
T        Si     0.677166666667     0.666666666667     0.250000000000     0          
O        O      0.905733333333     0.668666666667     0.078450000000     0          
O        O      0.946066666667     0.981900000000     0.146000000000     0          
O        O      0.880666666667     0.935166666667     0.112300000000     0          
O        O      0.972700000000     0.941966666667     0.084000000000     0          
O        O      0.953566666667     0.966266666667     0.480450000000     0          
O        O      0.897533333333     0.919366666667     0.434950000000     0          
O        O      0.983933333333     0.953100000000     0.410900000000     0          
O        O      0.858633333333     0.854300000000     0.468250000000     0          
T        Si     0.927033333333     0.965900000000     0.104850000000     0          
T        Si     0.934100000000     0.958233333333     0.437400000000     0          
T        Si     0.863100000000     0.879600000000     0.429000000000     0          
O        O      0.760933333333     0.998000000000     0.328450000000     0          
O        O      0.720600000000     0.684766666667     0.396000000000     0          
O        O      0.786000000000     0.731500000000     0.362300000000     0          
O        O      0.693966666667     0.724700000000     0.334000000000     0          
O        O      0.713100000000     0.700400000000     0.230450000000     0          
O        O      0.769133333333     0.747300000000     0.184950000000     0          
O        O      0.682733333333     0.713566666667     0.160900000000     0          
O        O      0.808033333333     0.812366666667     0.218250000000     0          
T        Si     0.739633333333     0.700766666667     0.354850000000     0          
T        Si     0.732566666667     0.708433333333     0.187400000000     0          
T        Si     0.803566666667     0.787066666667     0.179000000000     0          
O        O      0.739066666667     0.831333333333     0.421550000000     0          
O        O      0.779400000000     0.851433333333     0.354000000000     0          
O        O      0.714000000000     0.898166666667     0.387700000000     0          
O        O      0.806033333333     0.891366666667     0.416000000000     0          
O        O      0.786900000000     0.867066666667     0.019550000000     0          
O        O      0.730866666667     0.913966666667     0.065050000000     0          
O        O      0.817266666667     0.880233333333     0.089100000000     0          
O        O      0.691966666667     0.979033333333     0.031750000000     0          
T        Si     0.760366666667     0.867433333333     0.395150000000     0          
T        Si     0.767433333333     0.875100000000     0.062600000000     0          
T        Si     0.696433333333     0.953733333333     0.071000000000     0          
T        Si     0.666666666667     0.925666666667     0.375000000000     0          
T        Si     0.822833333333     0.833333333333     0.000000000000     0          
O        O      0.927600000000     0.835333333333     0.171550000000     0          
O        O      0.887266666667     0.815233333333     0.104000000000     0          
O        O      0.952666666667     0.768500000000     0.137700000000     0          
O        O      0.860633333333     0.775300000000     0.166000000000     0          
O        O      0.879766666667     0.799600000000     0.269550000000     0          
O        O      0.935800000000     0.752700000000     0.315050000000     0          
O        O      0.849400000000     0.786433333333     0.339100000000     0          
O        O      0.974700000000     0.687633333333     0.281750000000     0          
T        Si     0.906300000000     0.799233333333     0.145150000000     0          
T        Si     0.899233333333     0.791566666667     0.312600000000     0          
T        Si     0.970233333333     0.712933333333     0.321000000000     0          
T        Si     0.666666666667     0.741000000000     0.125000000000     0          
T        Si     0.843833333333     0.833333333333     0.250000000000     0          
O        O      0.739066666667     0.835333333333     0.078450000000     0          
O        O      0.779400000000     0.815233333333     0.146000000000     0          
O        O      0.714000000000     0.768500000000     0.112300000000     0          
O        O      0.806033333333     0.775300000000     0.084000000000     0          
O        O      0.786900000000     0.799600000000     0.480450000000     0          
O        O      0.730866666667     0.752700000000     0.434950000000     0          
O        O      0.817266666667     0.786433333333     0.410900000000     0          
O        O      0.691966666667     0.687633333333     0.468250000000     0          
T        Si     0.760366666667     0.799233333333     0.104850000000     0          
T        Si     0.767433333333     0.791566666667     0.437400000000     0          
T        Si     0.696433333333     0.712933333333     0.429000000000     0          
O        O      0.927600000000     0.831333333333     0.328450000000     0          
O        O      0.887266666667     0.851433333333     0.396000000000     0          
O        O      0.952666666667     0.898166666667     0.362300000000     0          
O        O      0.860633333333     0.891366666667     0.334000000000     0          
O        O      0.879766666667     0.867066666667     0.230450000000     0          
O        O      0.935800000000     0.913966666667     0.184950000000     0          
O        O      0.849400000000     0.880233333333     0.160900000000     0          
O        O      0.974700000000     0.979033333333     0.218250000000     0          
T        Si     0.906300000000     0.867433333333     0.354850000000     0          
T        Si     0.899233333333     0.875100000000     0.187400000000     0          
T        Si     0.970233333333     0.953733333333     0.179000000000     0          
O        O      0.905733333333     0.998000000000     0.921550000000     0          
O        O      0.946066666667     0.684766666667     0.854000000000     0          
O        O      0.880666666667     0.731500000000     0.887700000000     0          
O        O      0.972700000000     0.724700000000     0.916000000000     0          
O        O      0.953566666667     0.700400000000     0.519550000000     0          
O        O      0.897533333333     0.747300000000     0.565050000000     0          
O        O      0.983933333333     0.713566666667     0.589100000000     0          
O        O      0.858633333333     0.812366666667     0.531750000000     0          
T        Si     0.927033333333     0.700766666667     0.895150000000     0          
T        Si     0.934100000000     0.708433333333     0.562600000000     0          
T        Si     0.863100000000     0.787066666667     0.571000000000     0          
T        Si     0.833333333333     0.759000000000     0.875000000000     0          
T        Si     0.989500000000     0.666666666667     0.500000000000     0          
O        O      0.760933333333     0.668666666667     0.671550000000     0          
O        O      0.720600000000     0.981900000000     0.604000000000     0          
O        O      0.786000000000     0.935166666667     0.637700000000     0          
O        O      0.693966666667     0.941966666667     0.666000000000     0          
O        O      0.713100000000     0.966266666667     0.769550000000     0          
O        O      0.769133333333     0.919366666667     0.815050000000     0          
O        O      0.682733333333     0.953100000000     0.839100000000     0          
O        O      0.808033333333     0.854300000000     0.781750000000     0          
T        Si     0.739633333333     0.965900000000     0.645150000000     0          
T        Si     0.732566666667     0.958233333333     0.812600000000     0          
T        Si     0.803566666667     0.879600000000     0.821000000000     0          
T        Si     0.833333333333     0.907666666667     0.625000000000     0          
T        Si     0.677166666667     0.666666666667     0.750000000000     0          
O        O      0.905733333333     0.668666666667     0.578450000000     0          
O        O      0.946066666667     0.981900000000     0.646000000000     0          
O        O      0.880666666667     0.935166666667     0.612300000000     0          
O        O      0.972700000000     0.941966666667     0.584000000000     0          
O        O      0.953566666667     0.966266666667     0.980450000000     0          
O        O      0.897533333333     0.919366666667     0.934950000000     0          
O        O      0.983933333333     0.953100000000     0.910900000000     0          
O        O      0.858633333333     0.854300000000     0.968250000000     0          
T        Si     0.927033333333     0.965900000000     0.604850000000     0          
T        Si     0.934100000000     0.958233333333     0.937400000000     0          
T        Si     0.863100000000     0.879600000000     0.929000000000     0          
O        O      0.760933333333     0.998000000000     0.828450000000     0          
O        O      0.720600000000     0.684766666667     0.896000000000     0          
O        O      0.786000000000     0.731500000000     0.862300000000     0          
O        O      0.693966666667     0.724700000000     0.834000000000     0          
O        O      0.713100000000     0.700400000000     0.730450000000     0          
O        O      0.769133333333     0.747300000000     0.684950000000     0          
O        O      0.682733333333     0.713566666667     0.660900000000     0          
O        O      0.808033333333     0.812366666667     0.718250000000     0          
T        Si     0.739633333333     0.700766666667     0.854850000000     0          
T        Si     0.732566666667     0.708433333333     0.687400000000     0          
T        Si     0.803566666667     0.787066666667     0.679000000000     0          
O        O      0.739066666667     0.831333333333     0.921550000000     0          
O        O      0.779400000000     0.851433333333     0.854000000000     0          
O        O      0.714000000000     0.898166666667     0.887700000000     0          
O        O      0.806033333333     0.891366666667     0.916000000000     0          
O        O      0.786900000000     0.867066666667     0.519550000000     0          
O        O      0.730866666667     0.913966666667     0.565050000000     0          
O        O      0.817266666667     0.880233333333     0.589100000000     0          
O        O      0.691966666667     0.979033333333     0.531750000000     0          
T        Si     0.760366666667     0.867433333333     0.895150000000     0          
T        Si     0.767433333333     0.875100000000     0.562600000000     0          
T        Si     0.696433333333     0.953733333333     0.571000000000     0          
T        Si     0.666666666667     0.925666666667     0.875000000000     0          
T        Si     0.822833333333     0.833333333333     0.500000000000     0          
O        O      0.927600000000     0.835333333333     0.671550000000     0          
O        O      0.887266666667     0.815233333333     0.604000000000     0          
O        O      0.952666666667     0.768500000000     0.637700000000     0          
O        O      0.860633333333     0.775300000000     0.666000000000     0          
O        O      0.879766666667     0.799600000000     0.769550000000     0          
O        O      0.935800000000     0.752700000000     0.815050000000     0          
O        O      0.849400000000     0.786433333333     0.839100000000     0          
O        O      0.974700000000     0.687633333333     0.781750000000     0          
T        Si     0.906300000000     0.799233333333     0.645150000000     0          
T        Si     0.899233333333     0.791566666667     0.812600000000     0          
T        Si     0.970233333333     0.712933333333     0.821000000000     0          
T        Si     0.666666666667     0.741000000000     0.625000000000     0          
T        Si     0.843833333333     0.833333333333     0.750000000000     0          
O        O      0.739066666667     0.835333333333     0.578450000000     0          
O        O      0.779400000000     0.815233333333     0.646000000000     0          
O        O      0.714000000000     0.768500000000     0.612300000000     0          
O        O      0.806033333333     0.775300000000     0.584000000000     0          
O        O      0.786900000000     0.799600000000     0.980450000000     0          
O        O      0.730866666667     0.752700000000     0.934950000000     0          
O        O      0.817266666667     0.786433333333     0.910900000000     0          
O        O      0.691966666667     0.687633333333     0.968250000000     0          
T        Si     0.760366666667     0.799233333333     0.604850000000     0          
T        Si     0.767433333333     0.791566666667     0.937400000000     0          
T        Si     0.696433333333     0.712933333333     0.929000000000     0          
O        O      0.927600000000     0.831333333333     0.828450000000     0          
O        O      0.887266666667     0.851433333333     0.896000000000     0          
O        O      0.952666666667     0.898166666667     0.862300000000     0          
O        O      0.860633333333     0.891366666667     0.834000000000     0          
O        O      0.879766666667     0.867066666667     0.730450000000     0          
O        O      0.935800000000     0.913966666667     0.684950000000     0          
O        O      0.849400000000     0.880233333333     0.660900000000     0          
O        O      0.974700000000     0.979033333333     0.718250000000     0          
T        Si     0.906300000000     0.867433333333     0.854850000000     0          
T        Si     0.899233333333     0.875100000000     0.687400000000     0          
T        Si     0.970233333333     0.953733333333     0.679000000000     0          


