data_zeolite

_audit_creation_method RASPA-1.0
_audit_creation_date 2021-1-11
_audit_author_name ''

_cell_length_a    39.504
_cell_length_b    39.504
_cell_length_c    45.156
_cell_angle_alpha 90
_cell_angle_beta  90
_cell_angle_gamma 120
_cell_volume      61027.9

_symmetry_cell_setting          trigonal
_symmetry_space_group_name_Hall 'P 1'
_symmetry_space_group_name_H-M  'P 1'
_symmetry_Int_Tables_number     1

_symmetry_equiv_pos_as_xyz 'x,y,z'

loop_
_atom_site_label
_atom_site_type_symbol
_atom_site_fract_x
_atom_site_fract_y
_atom_site_fract_z
_atom_site_charge
O        O      0.031833333333     0.063666666667     0.038550000000     0          
O        O      0.011566666667     0.114933333333     0.054850000000     0          
O        O      0.290800000000     0.042533333333     0.043100000000     0          
O        O      0.000000000000     0.089266666667     0.000000000000     0          
O        O      0.037566666667     0.295766666667     0.244050000000     0          
T        Si     0.000166666667     0.077566666667     0.034150000000     0          
T        Si     0.079900000000     0.000000000000     0.250000000000     0          
O        O      0.269666666667     0.301500000000     0.038550000000     0          
O        O      0.218400000000     0.229966666667     0.054850000000     0          
O        O      0.290800000000     0.248266666667     0.043100000000     0          
O        O      0.244066666667     0.244066666667     0.000000000000     0          
O        O      0.037566666667     0.075133333333     0.244050000000     0          
T        Si     0.255766666667     0.255933333333     0.034150000000     0          
T        Si     0.000000000000     0.079900000000     0.250000000000     0          
O        O      0.031833333333     0.301500000000     0.038550000000     0          
O        O      0.103366666667     0.321766666667     0.054850000000     0          
O        O      0.085066666667     0.042533333333     0.043100000000     0          
O        O      0.089266666667     0.000000000000     0.000000000000     0          
O        O      0.258200000000     0.295766666667     0.244050000000     0          
T        Si     0.077400000000     0.333166666667     0.034150000000     0          
T        Si     0.253433333333     0.253433333333     0.250000000000     0          
O        O      0.063666666667     0.031833333333     0.461450000000     0          
O        O      0.114933333333     0.011566666667     0.445150000000     0          
O        O      0.042533333333     0.290800000000     0.456900000000     0          
O        O      0.295766666667     0.037566666667     0.255950000000     0          
T        Si     0.077566666667     0.000166666667     0.465850000000     0          
O        O      0.301500000000     0.031833333333     0.461450000000     0          
O        O      0.321766666667     0.103366666667     0.445150000000     0          
O        O      0.042533333333     0.085066666667     0.456900000000     0          
O        O      0.295766666667     0.258200000000     0.255950000000     0          
T        Si     0.333166666667     0.077400000000     0.465850000000     0          
O        O      0.301500000000     0.269666666667     0.461450000000     0          
O        O      0.229966666667     0.218400000000     0.445150000000     0          
O        O      0.248266666667     0.290800000000     0.456900000000     0          
O        O      0.075133333333     0.037566666667     0.255950000000     0          
T        Si     0.255933333333     0.255766666667     0.465850000000     0          
O        O      0.321766666667     0.218400000000     0.445150000000     0          
O        O      0.000000000000     0.244066666667     0.000000000000     0          
T        Si     0.333166666667     0.255766666667     0.465850000000     0          
T        Si     0.253433333333     0.000000000000     0.250000000000     0          
O        O      0.114933333333     0.103366666667     0.445150000000     0          
O        O      0.089266666667     0.089266666667     0.000000000000     0          
T        Si     0.077566666667     0.077400000000     0.465850000000     0          
T        Si     0.000000000000     0.253433333333     0.250000000000     0          
O        O      0.229966666667     0.011566666667     0.445150000000     0          
O        O      0.244066666667     0.000000000000     0.000000000000     0          
T        Si     0.255933333333     0.000166666667     0.465850000000     0          
T        Si     0.079900000000     0.079900000000     0.250000000000     0          
O        O      0.218400000000     0.321766666667     0.054850000000     0          
T        Si     0.255766666667     0.333166666667     0.034150000000     0          
O        O      0.011566666667     0.229966666667     0.054850000000     0          
T        Si     0.000166666667     0.255933333333     0.034150000000     0          
O        O      0.103366666667     0.114933333333     0.054850000000     0          
T        Si     0.077400000000     0.077566666667     0.034150000000     0          
O        O      0.254055555556     0.174777777778     0.205216666667     0          
O        O      0.233788888889     0.226044444444     0.221516666667     0          
O        O      0.179688888889     0.153644444444     0.209766666667     0          
O        O      0.222222222222     0.200377777778     0.166666666667     0          
O        O      0.259788888889     0.073544444444     0.410716666667     0          
T        Si     0.222388888889     0.188677777778     0.200816666667     0          
T        Si     0.302122222222     0.111111111111     0.416666666667     0          
O        O      0.158555555556     0.079277777778     0.205216666667     0          
O        O      0.107288888889     0.007744444444     0.221516666667     0          
O        O      0.179688888889     0.026044444444     0.209766666667     0          
O        O      0.132955555556     0.021844444444     0.166666666667     0          
O        O      0.259788888889     0.186244444444     0.410716666667     0          
T        Si     0.144655555556     0.033711111111     0.200816666667     0          
T        Si     0.222222222222     0.191011111111     0.416666666667     0          
O        O      0.254055555556     0.079277777778     0.205216666667     0          
O        O      0.325588888889     0.099544444444     0.221516666667     0          
O        O      0.307288888889     0.153644444444     0.209766666667     0          
O        O      0.311488888889     0.111111111111     0.166666666667     0          
O        O      0.147088888889     0.073544444444     0.410716666667     0          
T        Si     0.299622222222     0.110944444444     0.200816666667     0          
T        Si     0.142322222222     0.031211111111     0.416666666667     0          
O        O      0.285888888889     0.142944444444     0.128116666667     0          
O        O      0.003822222222     0.122677777778     0.111816666667     0          
O        O      0.264755555556     0.068577777778     0.123566666667     0          
O        O      0.184655555556     0.148677777778     0.422616666667     0          
T        Si     0.299788888889     0.111277777778     0.132516666667     0          
O        O      0.190388888889     0.142944444444     0.128116666667     0          
O        O      0.210655555556     0.214477777778     0.111816666667     0          
O        O      0.264755555556     0.196177777778     0.123566666667     0          
O        O      0.184655555556     0.035977777778     0.422616666667     0          
T        Si     0.222055555556     0.188511111111     0.132516666667     0          
O        O      0.190388888889     0.047444444444     0.128116666667     0          
O        O      0.118855555556     0.329511111111     0.111816666667     0          
O        O      0.137155555556     0.068577777778     0.123566666667     0          
O        O      0.297355555556     0.148677777778     0.422616666667     0          
T        Si     0.144822222222     0.033544444444     0.132516666667     0          
O        O      0.210655555556     0.329511111111     0.111816666667     0          
O        O      0.222222222222     0.021844444444     0.166666666667     0          
T        Si     0.222055555556     0.033544444444     0.132516666667     0          
T        Si     0.142322222222     0.111111111111     0.416666666667     0          
O        O      0.003822222222     0.214477777778     0.111816666667     0          
O        O      0.311488888889     0.200377777778     0.166666666667     0          
T        Si     0.299788888889     0.188511111111     0.132516666667     0          
T        Si     0.222222222222     0.031211111111     0.416666666667     0          
O        O      0.118855555556     0.122677777778     0.111816666667     0          
O        O      0.132955555556     0.111111111111     0.166666666667     0          
T        Si     0.144822222222     0.111277777778     0.132516666667     0          
T        Si     0.302122222222     0.191011111111     0.416666666667     0          
O        O      0.107288888889     0.099544444444     0.221516666667     0          
T        Si     0.144655555556     0.110944444444     0.200816666667     0          
O        O      0.233788888889     0.007744444444     0.221516666667     0          
T        Si     0.222388888889     0.033711111111     0.200816666667     0          
O        O      0.325588888889     0.226044444444     0.221516666667     0          
T        Si     0.299622222222     0.188677777778     0.200816666667     0          
O        O      0.142944444444     0.285888888889     0.371883333333     0          
O        O      0.122677777778     0.003822222222     0.388183333333     0          
O        O      0.068577777778     0.264755555556     0.376433333333     0          
O        O      0.111111111111     0.311488888889     0.333333333333     0          
O        O      0.148677777778     0.184655555556     0.077383333333     0          
T        Si     0.111277777778     0.299788888889     0.367483333333     0          
T        Si     0.191011111111     0.222222222222     0.083333333333     0          
O        O      0.047444444444     0.190388888889     0.371883333333     0          
O        O      0.329511111111     0.118855555556     0.388183333333     0          
O        O      0.068577777778     0.137155555556     0.376433333333     0          
O        O      0.021844444444     0.132955555556     0.333333333333     0          
O        O      0.148677777778     0.297355555556     0.077383333333     0          
T        Si     0.033544444444     0.144822222222     0.367483333333     0          
T        Si     0.111111111111     0.302122222222     0.083333333333     0          
O        O      0.142944444444     0.190388888889     0.371883333333     0          
O        O      0.214477777778     0.210655555556     0.388183333333     0          
O        O      0.196177777778     0.264755555556     0.376433333333     0          
O        O      0.200377777778     0.222222222222     0.333333333333     0          
O        O      0.035977777778     0.184655555556     0.077383333333     0          
T        Si     0.188511111111     0.222055555556     0.367483333333     0          
T        Si     0.031211111111     0.142322222222     0.083333333333     0          
O        O      0.174777777778     0.254055555556     0.294783333333     0          
O        O      0.226044444444     0.233788888889     0.278483333333     0          
O        O      0.153644444444     0.179688888889     0.290233333333     0          
O        O      0.073544444444     0.259788888889     0.089283333333     0          
T        Si     0.188677777778     0.222388888889     0.299183333333     0          
O        O      0.079277777778     0.254055555556     0.294783333333     0          
O        O      0.099544444444     0.325588888889     0.278483333333     0          
O        O      0.153644444444     0.307288888889     0.290233333333     0          
O        O      0.073544444444     0.147088888889     0.089283333333     0          
T        Si     0.110944444444     0.299622222222     0.299183333333     0          
O        O      0.079277777778     0.158555555556     0.294783333333     0          
O        O      0.007744444444     0.107288888889     0.278483333333     0          
O        O      0.026044444444     0.179688888889     0.290233333333     0          
O        O      0.186244444444     0.259788888889     0.089283333333     0          
T        Si     0.033711111111     0.144655555556     0.299183333333     0          
O        O      0.099544444444     0.107288888889     0.278483333333     0          
O        O      0.111111111111     0.132955555556     0.333333333333     0          
T        Si     0.110944444444     0.144655555556     0.299183333333     0          
T        Si     0.031211111111     0.222222222222     0.083333333333     0          
O        O      0.226044444444     0.325588888889     0.278483333333     0          
O        O      0.200377777778     0.311488888889     0.333333333333     0          
T        Si     0.188677777778     0.299622222222     0.299183333333     0          
T        Si     0.111111111111     0.142322222222     0.083333333333     0          
O        O      0.007744444444     0.233788888889     0.278483333333     0          
O        O      0.021844444444     0.222222222222     0.333333333333     0          
T        Si     0.033711111111     0.222388888889     0.299183333333     0          
T        Si     0.191011111111     0.302122222222     0.083333333333     0          
O        O      0.329511111111     0.210655555556     0.388183333333     0          
T        Si     0.033544444444     0.222055555556     0.367483333333     0          
O        O      0.122677777778     0.118855555556     0.388183333333     0          
T        Si     0.111277777778     0.144822222222     0.367483333333     0          
O        O      0.214477777778     0.003822222222     0.388183333333     0          
T        Si     0.188511111111     0.299788888889     0.367483333333     0          
O        O      0.031833333333     0.063666666667     0.538550000000     0          
O        O      0.011566666667     0.114933333333     0.554850000000     0          
O        O      0.290800000000     0.042533333333     0.543100000000     0          
O        O      0.000000000000     0.089266666667     0.500000000000     0          
O        O      0.037566666667     0.295766666667     0.744050000000     0          
T        Si     0.000166666667     0.077566666667     0.534150000000     0          
T        Si     0.079900000000     0.000000000000     0.750000000000     0          
O        O      0.269666666667     0.301500000000     0.538550000000     0          
O        O      0.218400000000     0.229966666667     0.554850000000     0          
O        O      0.290800000000     0.248266666667     0.543100000000     0          
O        O      0.244066666667     0.244066666667     0.500000000000     0          
O        O      0.037566666667     0.075133333333     0.744050000000     0          
T        Si     0.255766666667     0.255933333333     0.534150000000     0          
T        Si     0.000000000000     0.079900000000     0.750000000000     0          
O        O      0.031833333333     0.301500000000     0.538550000000     0          
O        O      0.103366666667     0.321766666667     0.554850000000     0          
O        O      0.085066666667     0.042533333333     0.543100000000     0          
O        O      0.089266666667     0.000000000000     0.500000000000     0          
O        O      0.258200000000     0.295766666667     0.744050000000     0          
T        Si     0.077400000000     0.333166666667     0.534150000000     0          
T        Si     0.253433333333     0.253433333333     0.750000000000     0          
O        O      0.063666666667     0.031833333333     0.961450000000     0          
O        O      0.114933333333     0.011566666667     0.945150000000     0          
O        O      0.042533333333     0.290800000000     0.956900000000     0          
O        O      0.295766666667     0.037566666667     0.755950000000     0          
T        Si     0.077566666667     0.000166666667     0.965850000000     0          
O        O      0.301500000000     0.031833333333     0.961450000000     0          
O        O      0.321766666667     0.103366666667     0.945150000000     0          
O        O      0.042533333333     0.085066666667     0.956900000000     0          
O        O      0.295766666667     0.258200000000     0.755950000000     0          
T        Si     0.333166666667     0.077400000000     0.965850000000     0          
O        O      0.301500000000     0.269666666667     0.961450000000     0          
O        O      0.229966666667     0.218400000000     0.945150000000     0          
O        O      0.248266666667     0.290800000000     0.956900000000     0          
O        O      0.075133333333     0.037566666667     0.755950000000     0          
T        Si     0.255933333333     0.255766666667     0.965850000000     0          
O        O      0.321766666667     0.218400000000     0.945150000000     0          
O        O      0.000000000000     0.244066666667     0.500000000000     0          
T        Si     0.333166666667     0.255766666667     0.965850000000     0          
T        Si     0.253433333333     0.000000000000     0.750000000000     0          
O        O      0.114933333333     0.103366666667     0.945150000000     0          
O        O      0.089266666667     0.089266666667     0.500000000000     0          
T        Si     0.077566666667     0.077400000000     0.965850000000     0          
T        Si     0.000000000000     0.253433333333     0.750000000000     0          
O        O      0.229966666667     0.011566666667     0.945150000000     0          
O        O      0.244066666667     0.000000000000     0.500000000000     0          
T        Si     0.255933333333     0.000166666667     0.965850000000     0          
T        Si     0.079900000000     0.079900000000     0.750000000000     0          
O        O      0.218400000000     0.321766666667     0.554850000000     0          
T        Si     0.255766666667     0.333166666667     0.534150000000     0          
O        O      0.011566666667     0.229966666667     0.554850000000     0          
T        Si     0.000166666667     0.255933333333     0.534150000000     0          
O        O      0.103366666667     0.114933333333     0.554850000000     0          
T        Si     0.077400000000     0.077566666667     0.534150000000     0          
O        O      0.254055555556     0.174777777778     0.705216666667     0          
O        O      0.233788888889     0.226044444444     0.721516666667     0          
O        O      0.179688888889     0.153644444444     0.709766666667     0          
O        O      0.222222222222     0.200377777778     0.666666666667     0          
O        O      0.259788888889     0.073544444444     0.910716666667     0          
T        Si     0.222388888889     0.188677777778     0.700816666667     0          
T        Si     0.302122222222     0.111111111111     0.916666666667     0          
O        O      0.158555555556     0.079277777778     0.705216666667     0          
O        O      0.107288888889     0.007744444444     0.721516666667     0          
O        O      0.179688888889     0.026044444444     0.709766666667     0          
O        O      0.132955555556     0.021844444444     0.666666666667     0          
O        O      0.259788888889     0.186244444444     0.910716666667     0          
T        Si     0.144655555556     0.033711111111     0.700816666667     0          
T        Si     0.222222222222     0.191011111111     0.916666666667     0          
O        O      0.254055555556     0.079277777778     0.705216666667     0          
O        O      0.325588888889     0.099544444444     0.721516666667     0          
O        O      0.307288888889     0.153644444444     0.709766666667     0          
O        O      0.311488888889     0.111111111111     0.666666666667     0          
O        O      0.147088888889     0.073544444444     0.910716666667     0          
T        Si     0.299622222222     0.110944444444     0.700816666667     0          
T        Si     0.142322222222     0.031211111111     0.916666666667     0          
O        O      0.285888888889     0.142944444444     0.628116666667     0          
O        O      0.003822222222     0.122677777778     0.611816666667     0          
O        O      0.264755555556     0.068577777778     0.623566666667     0          
O        O      0.184655555556     0.148677777778     0.922616666667     0          
T        Si     0.299788888889     0.111277777778     0.632516666667     0          
O        O      0.190388888889     0.142944444444     0.628116666667     0          
O        O      0.210655555556     0.214477777778     0.611816666667     0          
O        O      0.264755555556     0.196177777778     0.623566666667     0          
O        O      0.184655555556     0.035977777778     0.922616666667     0          
T        Si     0.222055555556     0.188511111111     0.632516666667     0          
O        O      0.190388888889     0.047444444444     0.628116666667     0          
O        O      0.118855555556     0.329511111111     0.611816666667     0          
O        O      0.137155555556     0.068577777778     0.623566666667     0          
O        O      0.297355555556     0.148677777778     0.922616666667     0          
T        Si     0.144822222222     0.033544444444     0.632516666667     0          
O        O      0.210655555556     0.329511111111     0.611816666667     0          
O        O      0.222222222222     0.021844444444     0.666666666667     0          
T        Si     0.222055555556     0.033544444444     0.632516666667     0          
T        Si     0.142322222222     0.111111111111     0.916666666667     0          
O        O      0.003822222222     0.214477777778     0.611816666667     0          
O        O      0.311488888889     0.200377777778     0.666666666667     0          
T        Si     0.299788888889     0.188511111111     0.632516666667     0          
T        Si     0.222222222222     0.031211111111     0.916666666667     0          
O        O      0.118855555556     0.122677777778     0.611816666667     0          
O        O      0.132955555556     0.111111111111     0.666666666667     0          
T        Si     0.144822222222     0.111277777778     0.632516666667     0          
T        Si     0.302122222222     0.191011111111     0.916666666667     0          
O        O      0.107288888889     0.099544444444     0.721516666667     0          
T        Si     0.144655555556     0.110944444444     0.700816666667     0          
O        O      0.233788888889     0.007744444444     0.721516666667     0          
T        Si     0.222388888889     0.033711111111     0.700816666667     0          
O        O      0.325588888889     0.226044444444     0.721516666667     0          
T        Si     0.299622222222     0.188677777778     0.700816666667     0          
O        O      0.142944444444     0.285888888889     0.871883333333     0          
O        O      0.122677777778     0.003822222222     0.888183333333     0          
O        O      0.068577777778     0.264755555556     0.876433333333     0          
O        O      0.111111111111     0.311488888889     0.833333333333     0          
O        O      0.148677777778     0.184655555556     0.577383333333     0          
T        Si     0.111277777778     0.299788888889     0.867483333333     0          
T        Si     0.191011111111     0.222222222222     0.583333333333     0          
O        O      0.047444444444     0.190388888889     0.871883333333     0          
O        O      0.329511111111     0.118855555556     0.888183333333     0          
O        O      0.068577777778     0.137155555556     0.876433333333     0          
O        O      0.021844444444     0.132955555556     0.833333333333     0          
O        O      0.148677777778     0.297355555556     0.577383333333     0          
T        Si     0.033544444444     0.144822222222     0.867483333333     0          
T        Si     0.111111111111     0.302122222222     0.583333333333     0          
O        O      0.142944444444     0.190388888889     0.871883333333     0          
O        O      0.214477777778     0.210655555556     0.888183333333     0          
O        O      0.196177777778     0.264755555556     0.876433333333     0          
O        O      0.200377777778     0.222222222222     0.833333333333     0          
O        O      0.035977777778     0.184655555556     0.577383333333     0          
T        Si     0.188511111111     0.222055555556     0.867483333333     0          
T        Si     0.031211111111     0.142322222222     0.583333333333     0          
O        O      0.174777777778     0.254055555556     0.794783333333     0          
O        O      0.226044444444     0.233788888889     0.778483333333     0          
O        O      0.153644444444     0.179688888889     0.790233333333     0          
O        O      0.073544444444     0.259788888889     0.589283333333     0          
T        Si     0.188677777778     0.222388888889     0.799183333333     0          
O        O      0.079277777778     0.254055555556     0.794783333333     0          
O        O      0.099544444444     0.325588888889     0.778483333333     0          
O        O      0.153644444444     0.307288888889     0.790233333333     0          
O        O      0.073544444444     0.147088888889     0.589283333333     0          
T        Si     0.110944444444     0.299622222222     0.799183333333     0          
O        O      0.079277777778     0.158555555556     0.794783333333     0          
O        O      0.007744444444     0.107288888889     0.778483333333     0          
O        O      0.026044444444     0.179688888889     0.790233333333     0          
O        O      0.186244444444     0.259788888889     0.589283333333     0          
T        Si     0.033711111111     0.144655555556     0.799183333333     0          
O        O      0.099544444444     0.107288888889     0.778483333333     0          
O        O      0.111111111111     0.132955555556     0.833333333333     0          
T        Si     0.110944444444     0.144655555556     0.799183333333     0          
T        Si     0.031211111111     0.222222222222     0.583333333333     0          
O        O      0.226044444444     0.325588888889     0.778483333333     0          
O        O      0.200377777778     0.311488888889     0.833333333333     0          
T        Si     0.188677777778     0.299622222222     0.799183333333     0          
T        Si     0.111111111111     0.142322222222     0.583333333333     0          
O        O      0.007744444444     0.233788888889     0.778483333333     0          
O        O      0.021844444444     0.222222222222     0.833333333333     0          
T        Si     0.033711111111     0.222388888889     0.799183333333     0          
T        Si     0.191011111111     0.302122222222     0.583333333333     0          
O        O      0.329511111111     0.210655555556     0.888183333333     0          
T        Si     0.033544444444     0.222055555556     0.867483333333     0          
O        O      0.122677777778     0.118855555556     0.888183333333     0          
T        Si     0.111277777778     0.144822222222     0.867483333333     0          
O        O      0.214477777778     0.003822222222     0.888183333333     0          
T        Si     0.188511111111     0.299788888889     0.867483333333     0          
O        O      0.031833333333     0.397000000000     0.038550000000     0          
O        O      0.011566666667     0.448266666667     0.054850000000     0          
O        O      0.290800000000     0.375866666667     0.043100000000     0          
O        O      0.000000000000     0.422600000000     0.000000000000     0          
O        O      0.037566666667     0.629100000000     0.244050000000     0          
T        Si     0.000166666667     0.410900000000     0.034150000000     0          
T        Si     0.079900000000     0.333333333333     0.250000000000     0          
O        O      0.269666666667     0.634833333333     0.038550000000     0          
O        O      0.218400000000     0.563300000000     0.054850000000     0          
O        O      0.290800000000     0.581600000000     0.043100000000     0          
O        O      0.244066666667     0.577400000000     0.000000000000     0          
O        O      0.037566666667     0.408466666667     0.244050000000     0          
T        Si     0.255766666667     0.589266666667     0.034150000000     0          
T        Si     0.000000000000     0.413233333333     0.250000000000     0          
O        O      0.031833333333     0.634833333333     0.038550000000     0          
O        O      0.103366666667     0.655100000000     0.054850000000     0          
O        O      0.085066666667     0.375866666667     0.043100000000     0          
O        O      0.089266666667     0.333333333333     0.000000000000     0          
O        O      0.258200000000     0.629100000000     0.244050000000     0          
T        Si     0.077400000000     0.666500000000     0.034150000000     0          
T        Si     0.253433333333     0.586766666667     0.250000000000     0          
O        O      0.063666666667     0.365166666667     0.461450000000     0          
O        O      0.114933333333     0.344900000000     0.445150000000     0          
O        O      0.042533333333     0.624133333333     0.456900000000     0          
O        O      0.295766666667     0.370900000000     0.255950000000     0          
T        Si     0.077566666667     0.333500000000     0.465850000000     0          
O        O      0.301500000000     0.365166666667     0.461450000000     0          
O        O      0.321766666667     0.436700000000     0.445150000000     0          
O        O      0.042533333333     0.418400000000     0.456900000000     0          
O        O      0.295766666667     0.591533333333     0.255950000000     0          
T        Si     0.333166666667     0.410733333333     0.465850000000     0          
O        O      0.301500000000     0.603000000000     0.461450000000     0          
O        O      0.229966666667     0.551733333333     0.445150000000     0          
O        O      0.248266666667     0.624133333333     0.456900000000     0          
O        O      0.075133333333     0.370900000000     0.255950000000     0          
T        Si     0.255933333333     0.589100000000     0.465850000000     0          
O        O      0.321766666667     0.551733333333     0.445150000000     0          
O        O      0.000000000000     0.577400000000     0.000000000000     0          
T        Si     0.333166666667     0.589100000000     0.465850000000     0          
T        Si     0.253433333333     0.333333333333     0.250000000000     0          
O        O      0.114933333333     0.436700000000     0.445150000000     0          
O        O      0.089266666667     0.422600000000     0.000000000000     0          
T        Si     0.077566666667     0.410733333333     0.465850000000     0          
T        Si     0.000000000000     0.586766666667     0.250000000000     0          
O        O      0.229966666667     0.344900000000     0.445150000000     0          
O        O      0.244066666667     0.333333333333     0.000000000000     0          
T        Si     0.255933333333     0.333500000000     0.465850000000     0          
T        Si     0.079900000000     0.413233333333     0.250000000000     0          
O        O      0.218400000000     0.655100000000     0.054850000000     0          
T        Si     0.255766666667     0.666500000000     0.034150000000     0          
O        O      0.011566666667     0.563300000000     0.054850000000     0          
T        Si     0.000166666667     0.589266666667     0.034150000000     0          
O        O      0.103366666667     0.448266666667     0.054850000000     0          
T        Si     0.077400000000     0.410900000000     0.034150000000     0          
O        O      0.254055555556     0.508111111111     0.205216666667     0          
O        O      0.233788888889     0.559377777778     0.221516666667     0          
O        O      0.179688888889     0.486977777778     0.209766666667     0          
O        O      0.222222222222     0.533711111111     0.166666666667     0          
O        O      0.259788888889     0.406877777778     0.410716666667     0          
T        Si     0.222388888889     0.522011111111     0.200816666667     0          
T        Si     0.302122222222     0.444444444444     0.416666666667     0          
O        O      0.158555555556     0.412611111111     0.205216666667     0          
O        O      0.107288888889     0.341077777778     0.221516666667     0          
O        O      0.179688888889     0.359377777778     0.209766666667     0          
O        O      0.132955555556     0.355177777778     0.166666666667     0          
O        O      0.259788888889     0.519577777778     0.410716666667     0          
T        Si     0.144655555556     0.367044444444     0.200816666667     0          
T        Si     0.222222222222     0.524344444444     0.416666666667     0          
O        O      0.254055555556     0.412611111111     0.205216666667     0          
O        O      0.325588888889     0.432877777778     0.221516666667     0          
O        O      0.307288888889     0.486977777778     0.209766666667     0          
O        O      0.311488888889     0.444444444444     0.166666666667     0          
O        O      0.147088888889     0.406877777778     0.410716666667     0          
T        Si     0.299622222222     0.444277777778     0.200816666667     0          
T        Si     0.142322222222     0.364544444444     0.416666666667     0          
O        O      0.285888888889     0.476277777778     0.128116666667     0          
O        O      0.003822222222     0.456011111111     0.111816666667     0          
O        O      0.264755555556     0.401911111111     0.123566666667     0          
O        O      0.184655555556     0.482011111111     0.422616666667     0          
T        Si     0.299788888889     0.444611111111     0.132516666667     0          
O        O      0.190388888889     0.476277777778     0.128116666667     0          
O        O      0.210655555556     0.547811111111     0.111816666667     0          
O        O      0.264755555556     0.529511111111     0.123566666667     0          
O        O      0.184655555556     0.369311111111     0.422616666667     0          
T        Si     0.222055555556     0.521844444444     0.132516666667     0          
O        O      0.190388888889     0.380777777778     0.128116666667     0          
O        O      0.118855555556     0.662844444444     0.111816666667     0          
O        O      0.137155555556     0.401911111111     0.123566666667     0          
O        O      0.297355555556     0.482011111111     0.422616666667     0          
T        Si     0.144822222222     0.366877777778     0.132516666667     0          
O        O      0.210655555556     0.662844444444     0.111816666667     0          
O        O      0.222222222222     0.355177777778     0.166666666667     0          
T        Si     0.222055555556     0.366877777778     0.132516666667     0          
T        Si     0.142322222222     0.444444444444     0.416666666667     0          
O        O      0.003822222222     0.547811111111     0.111816666667     0          
O        O      0.311488888889     0.533711111111     0.166666666667     0          
T        Si     0.299788888889     0.521844444444     0.132516666667     0          
T        Si     0.222222222222     0.364544444444     0.416666666667     0          
O        O      0.118855555556     0.456011111111     0.111816666667     0          
O        O      0.132955555556     0.444444444444     0.166666666667     0          
T        Si     0.144822222222     0.444611111111     0.132516666667     0          
T        Si     0.302122222222     0.524344444444     0.416666666667     0          
O        O      0.107288888889     0.432877777778     0.221516666667     0          
T        Si     0.144655555556     0.444277777778     0.200816666667     0          
O        O      0.233788888889     0.341077777778     0.221516666667     0          
T        Si     0.222388888889     0.367044444444     0.200816666667     0          
O        O      0.325588888889     0.559377777778     0.221516666667     0          
T        Si     0.299622222222     0.522011111111     0.200816666667     0          
O        O      0.142944444444     0.619222222222     0.371883333333     0          
O        O      0.122677777778     0.337155555556     0.388183333333     0          
O        O      0.068577777778     0.598088888889     0.376433333333     0          
O        O      0.111111111111     0.644822222222     0.333333333333     0          
O        O      0.148677777778     0.517988888889     0.077383333333     0          
T        Si     0.111277777778     0.633122222222     0.367483333333     0          
T        Si     0.191011111111     0.555555555556     0.083333333333     0          
O        O      0.047444444444     0.523722222222     0.371883333333     0          
O        O      0.329511111111     0.452188888889     0.388183333333     0          
O        O      0.068577777778     0.470488888889     0.376433333333     0          
O        O      0.021844444444     0.466288888889     0.333333333333     0          
O        O      0.148677777778     0.630688888889     0.077383333333     0          
T        Si     0.033544444444     0.478155555556     0.367483333333     0          
T        Si     0.111111111111     0.635455555556     0.083333333333     0          
O        O      0.142944444444     0.523722222222     0.371883333333     0          
O        O      0.214477777778     0.543988888889     0.388183333333     0          
O        O      0.196177777778     0.598088888889     0.376433333333     0          
O        O      0.200377777778     0.555555555556     0.333333333333     0          
O        O      0.035977777778     0.517988888889     0.077383333333     0          
T        Si     0.188511111111     0.555388888889     0.367483333333     0          
T        Si     0.031211111111     0.475655555556     0.083333333333     0          
O        O      0.174777777778     0.587388888889     0.294783333333     0          
O        O      0.226044444444     0.567122222222     0.278483333333     0          
O        O      0.153644444444     0.513022222222     0.290233333333     0          
O        O      0.073544444444     0.593122222222     0.089283333333     0          
T        Si     0.188677777778     0.555722222222     0.299183333333     0          
O        O      0.079277777778     0.587388888889     0.294783333333     0          
O        O      0.099544444444     0.658922222222     0.278483333333     0          
O        O      0.153644444444     0.640622222222     0.290233333333     0          
O        O      0.073544444444     0.480422222222     0.089283333333     0          
T        Si     0.110944444444     0.632955555556     0.299183333333     0          
O        O      0.079277777778     0.491888888889     0.294783333333     0          
O        O      0.007744444444     0.440622222222     0.278483333333     0          
O        O      0.026044444444     0.513022222222     0.290233333333     0          
O        O      0.186244444444     0.593122222222     0.089283333333     0          
T        Si     0.033711111111     0.477988888889     0.299183333333     0          
O        O      0.099544444444     0.440622222222     0.278483333333     0          
O        O      0.111111111111     0.466288888889     0.333333333333     0          
T        Si     0.110944444444     0.477988888889     0.299183333333     0          
T        Si     0.031211111111     0.555555555556     0.083333333333     0          
O        O      0.226044444444     0.658922222222     0.278483333333     0          
O        O      0.200377777778     0.644822222222     0.333333333333     0          
T        Si     0.188677777778     0.632955555556     0.299183333333     0          
T        Si     0.111111111111     0.475655555556     0.083333333333     0          
O        O      0.007744444444     0.567122222222     0.278483333333     0          
O        O      0.021844444444     0.555555555556     0.333333333333     0          
T        Si     0.033711111111     0.555722222222     0.299183333333     0          
T        Si     0.191011111111     0.635455555556     0.083333333333     0          
O        O      0.329511111111     0.543988888889     0.388183333333     0          
T        Si     0.033544444444     0.555388888889     0.367483333333     0          
O        O      0.122677777778     0.452188888889     0.388183333333     0          
T        Si     0.111277777778     0.478155555556     0.367483333333     0          
O        O      0.214477777778     0.337155555556     0.388183333333     0          
T        Si     0.188511111111     0.633122222222     0.367483333333     0          
O        O      0.031833333333     0.397000000000     0.538550000000     0          
O        O      0.011566666667     0.448266666667     0.554850000000     0          
O        O      0.290800000000     0.375866666667     0.543100000000     0          
O        O      0.000000000000     0.422600000000     0.500000000000     0          
O        O      0.037566666667     0.629100000000     0.744050000000     0          
T        Si     0.000166666667     0.410900000000     0.534150000000     0          
T        Si     0.079900000000     0.333333333333     0.750000000000     0          
O        O      0.269666666667     0.634833333333     0.538550000000     0          
O        O      0.218400000000     0.563300000000     0.554850000000     0          
O        O      0.290800000000     0.581600000000     0.543100000000     0          
O        O      0.244066666667     0.577400000000     0.500000000000     0          
O        O      0.037566666667     0.408466666667     0.744050000000     0          
T        Si     0.255766666667     0.589266666667     0.534150000000     0          
T        Si     0.000000000000     0.413233333333     0.750000000000     0          
O        O      0.031833333333     0.634833333333     0.538550000000     0          
O        O      0.103366666667     0.655100000000     0.554850000000     0          
O        O      0.085066666667     0.375866666667     0.543100000000     0          
O        O      0.089266666667     0.333333333333     0.500000000000     0          
O        O      0.258200000000     0.629100000000     0.744050000000     0          
T        Si     0.077400000000     0.666500000000     0.534150000000     0          
T        Si     0.253433333333     0.586766666667     0.750000000000     0          
O        O      0.063666666667     0.365166666667     0.961450000000     0          
O        O      0.114933333333     0.344900000000     0.945150000000     0          
O        O      0.042533333333     0.624133333333     0.956900000000     0          
O        O      0.295766666667     0.370900000000     0.755950000000     0          
T        Si     0.077566666667     0.333500000000     0.965850000000     0          
O        O      0.301500000000     0.365166666667     0.961450000000     0          
O        O      0.321766666667     0.436700000000     0.945150000000     0          
O        O      0.042533333333     0.418400000000     0.956900000000     0          
O        O      0.295766666667     0.591533333333     0.755950000000     0          
T        Si     0.333166666667     0.410733333333     0.965850000000     0          
O        O      0.301500000000     0.603000000000     0.961450000000     0          
O        O      0.229966666667     0.551733333333     0.945150000000     0          
O        O      0.248266666667     0.624133333333     0.956900000000     0          
O        O      0.075133333333     0.370900000000     0.755950000000     0          
T        Si     0.255933333333     0.589100000000     0.965850000000     0          
O        O      0.321766666667     0.551733333333     0.945150000000     0          
O        O      0.000000000000     0.577400000000     0.500000000000     0          
T        Si     0.333166666667     0.589100000000     0.965850000000     0          
T        Si     0.253433333333     0.333333333333     0.750000000000     0          
O        O      0.114933333333     0.436700000000     0.945150000000     0          
O        O      0.089266666667     0.422600000000     0.500000000000     0          
T        Si     0.077566666667     0.410733333333     0.965850000000     0          
T        Si     0.000000000000     0.586766666667     0.750000000000     0          
O        O      0.229966666667     0.344900000000     0.945150000000     0          
O        O      0.244066666667     0.333333333333     0.500000000000     0          
T        Si     0.255933333333     0.333500000000     0.965850000000     0          
T        Si     0.079900000000     0.413233333333     0.750000000000     0          
O        O      0.218400000000     0.655100000000     0.554850000000     0          
T        Si     0.255766666667     0.666500000000     0.534150000000     0          
O        O      0.011566666667     0.563300000000     0.554850000000     0          
T        Si     0.000166666667     0.589266666667     0.534150000000     0          
O        O      0.103366666667     0.448266666667     0.554850000000     0          
T        Si     0.077400000000     0.410900000000     0.534150000000     0          
O        O      0.254055555556     0.508111111111     0.705216666667     0          
O        O      0.233788888889     0.559377777778     0.721516666667     0          
O        O      0.179688888889     0.486977777778     0.709766666667     0          
O        O      0.222222222222     0.533711111111     0.666666666667     0          
O        O      0.259788888889     0.406877777778     0.910716666667     0          
T        Si     0.222388888889     0.522011111111     0.700816666667     0          
T        Si     0.302122222222     0.444444444444     0.916666666667     0          
O        O      0.158555555556     0.412611111111     0.705216666667     0          
O        O      0.107288888889     0.341077777778     0.721516666667     0          
O        O      0.179688888889     0.359377777778     0.709766666667     0          
O        O      0.132955555556     0.355177777778     0.666666666667     0          
O        O      0.259788888889     0.519577777778     0.910716666667     0          
T        Si     0.144655555556     0.367044444444     0.700816666667     0          
T        Si     0.222222222222     0.524344444444     0.916666666667     0          
O        O      0.254055555556     0.412611111111     0.705216666667     0          
O        O      0.325588888889     0.432877777778     0.721516666667     0          
O        O      0.307288888889     0.486977777778     0.709766666667     0          
O        O      0.311488888889     0.444444444444     0.666666666667     0          
O        O      0.147088888889     0.406877777778     0.910716666667     0          
T        Si     0.299622222222     0.444277777778     0.700816666667     0          
T        Si     0.142322222222     0.364544444444     0.916666666667     0          
O        O      0.285888888889     0.476277777778     0.628116666667     0          
O        O      0.003822222222     0.456011111111     0.611816666667     0          
O        O      0.264755555556     0.401911111111     0.623566666667     0          
O        O      0.184655555556     0.482011111111     0.922616666667     0          
T        Si     0.299788888889     0.444611111111     0.632516666667     0          
O        O      0.190388888889     0.476277777778     0.628116666667     0          
O        O      0.210655555556     0.547811111111     0.611816666667     0          
O        O      0.264755555556     0.529511111111     0.623566666667     0          
O        O      0.184655555556     0.369311111111     0.922616666667     0          
T        Si     0.222055555556     0.521844444444     0.632516666667     0          
O        O      0.190388888889     0.380777777778     0.628116666667     0          
O        O      0.118855555556     0.662844444444     0.611816666667     0          
O        O      0.137155555556     0.401911111111     0.623566666667     0          
O        O      0.297355555556     0.482011111111     0.922616666667     0          
T        Si     0.144822222222     0.366877777778     0.632516666667     0          
O        O      0.210655555556     0.662844444444     0.611816666667     0          
O        O      0.222222222222     0.355177777778     0.666666666667     0          
T        Si     0.222055555556     0.366877777778     0.632516666667     0          
T        Si     0.142322222222     0.444444444444     0.916666666667     0          
O        O      0.003822222222     0.547811111111     0.611816666667     0          
O        O      0.311488888889     0.533711111111     0.666666666667     0          
T        Si     0.299788888889     0.521844444444     0.632516666667     0          
T        Si     0.222222222222     0.364544444444     0.916666666667     0          
O        O      0.118855555556     0.456011111111     0.611816666667     0          
O        O      0.132955555556     0.444444444444     0.666666666667     0          
T        Si     0.144822222222     0.444611111111     0.632516666667     0          
T        Si     0.302122222222     0.524344444444     0.916666666667     0          
O        O      0.107288888889     0.432877777778     0.721516666667     0          
T        Si     0.144655555556     0.444277777778     0.700816666667     0          
O        O      0.233788888889     0.341077777778     0.721516666667     0          
T        Si     0.222388888889     0.367044444444     0.700816666667     0          
O        O      0.325588888889     0.559377777778     0.721516666667     0          
T        Si     0.299622222222     0.522011111111     0.700816666667     0          
O        O      0.142944444444     0.619222222222     0.871883333333     0          
O        O      0.122677777778     0.337155555556     0.888183333333     0          
O        O      0.068577777778     0.598088888889     0.876433333333     0          
O        O      0.111111111111     0.644822222222     0.833333333333     0          
O        O      0.148677777778     0.517988888889     0.577383333333     0          
T        Si     0.111277777778     0.633122222222     0.867483333333     0          
T        Si     0.191011111111     0.555555555556     0.583333333333     0          
O        O      0.047444444444     0.523722222222     0.871883333333     0          
O        O      0.329511111111     0.452188888889     0.888183333333     0          
O        O      0.068577777778     0.470488888889     0.876433333333     0          
O        O      0.021844444444     0.466288888889     0.833333333333     0          
O        O      0.148677777778     0.630688888889     0.577383333333     0          
T        Si     0.033544444444     0.478155555556     0.867483333333     0          
T        Si     0.111111111111     0.635455555556     0.583333333333     0          
O        O      0.142944444444     0.523722222222     0.871883333333     0          
O        O      0.214477777778     0.543988888889     0.888183333333     0          
O        O      0.196177777778     0.598088888889     0.876433333333     0          
O        O      0.200377777778     0.555555555556     0.833333333333     0          
O        O      0.035977777778     0.517988888889     0.577383333333     0          
T        Si     0.188511111111     0.555388888889     0.867483333333     0          
T        Si     0.031211111111     0.475655555556     0.583333333333     0          
O        O      0.174777777778     0.587388888889     0.794783333333     0          
O        O      0.226044444444     0.567122222222     0.778483333333     0          
O        O      0.153644444444     0.513022222222     0.790233333333     0          
O        O      0.073544444444     0.593122222222     0.589283333333     0          
T        Si     0.188677777778     0.555722222222     0.799183333333     0          
O        O      0.079277777778     0.587388888889     0.794783333333     0          
O        O      0.099544444444     0.658922222222     0.778483333333     0          
O        O      0.153644444444     0.640622222222     0.790233333333     0          
O        O      0.073544444444     0.480422222222     0.589283333333     0          
T        Si     0.110944444444     0.632955555556     0.799183333333     0          
O        O      0.079277777778     0.491888888889     0.794783333333     0          
O        O      0.007744444444     0.440622222222     0.778483333333     0          
O        O      0.026044444444     0.513022222222     0.790233333333     0          
O        O      0.186244444444     0.593122222222     0.589283333333     0          
T        Si     0.033711111111     0.477988888889     0.799183333333     0          
O        O      0.099544444444     0.440622222222     0.778483333333     0          
O        O      0.111111111111     0.466288888889     0.833333333333     0          
T        Si     0.110944444444     0.477988888889     0.799183333333     0          
T        Si     0.031211111111     0.555555555556     0.583333333333     0          
O        O      0.226044444444     0.658922222222     0.778483333333     0          
O        O      0.200377777778     0.644822222222     0.833333333333     0          
T        Si     0.188677777778     0.632955555556     0.799183333333     0          
T        Si     0.111111111111     0.475655555556     0.583333333333     0          
O        O      0.007744444444     0.567122222222     0.778483333333     0          
O        O      0.021844444444     0.555555555556     0.833333333333     0          
T        Si     0.033711111111     0.555722222222     0.799183333333     0          
T        Si     0.191011111111     0.635455555556     0.583333333333     0          
O        O      0.329511111111     0.543988888889     0.888183333333     0          
T        Si     0.033544444444     0.555388888889     0.867483333333     0          
O        O      0.122677777778     0.452188888889     0.888183333333     0          
T        Si     0.111277777778     0.478155555556     0.867483333333     0          
O        O      0.214477777778     0.337155555556     0.888183333333     0          
T        Si     0.188511111111     0.633122222222     0.867483333333     0          
O        O      0.031833333333     0.730333333333     0.038550000000     0          
O        O      0.011566666667     0.781600000000     0.054850000000     0          
O        O      0.290800000000     0.709200000000     0.043100000000     0          
O        O      0.000000000000     0.755933333333     0.000000000000     0          
O        O      0.037566666667     0.962433333333     0.244050000000     0          
T        Si     0.000166666667     0.744233333333     0.034150000000     0          
T        Si     0.079900000000     0.666666666667     0.250000000000     0          
O        O      0.269666666667     0.968166666667     0.038550000000     0          
O        O      0.218400000000     0.896633333333     0.054850000000     0          
O        O      0.290800000000     0.914933333333     0.043100000000     0          
O        O      0.244066666667     0.910733333333     0.000000000000     0          
O        O      0.037566666667     0.741800000000     0.244050000000     0          
T        Si     0.255766666667     0.922600000000     0.034150000000     0          
T        Si     0.000000000000     0.746566666667     0.250000000000     0          
O        O      0.031833333333     0.968166666667     0.038550000000     0          
O        O      0.103366666667     0.988433333333     0.054850000000     0          
O        O      0.085066666667     0.709200000000     0.043100000000     0          
O        O      0.089266666667     0.666666666667     0.000000000000     0          
O        O      0.258200000000     0.962433333333     0.244050000000     0          
T        Si     0.077400000000     0.999833333333     0.034150000000     0          
T        Si     0.253433333333     0.920100000000     0.250000000000     0          
O        O      0.063666666667     0.698500000000     0.461450000000     0          
O        O      0.114933333333     0.678233333333     0.445150000000     0          
O        O      0.042533333333     0.957466666667     0.456900000000     0          
O        O      0.295766666667     0.704233333333     0.255950000000     0          
T        Si     0.077566666667     0.666833333333     0.465850000000     0          
O        O      0.301500000000     0.698500000000     0.461450000000     0          
O        O      0.321766666667     0.770033333333     0.445150000000     0          
O        O      0.042533333333     0.751733333333     0.456900000000     0          
O        O      0.295766666667     0.924866666667     0.255950000000     0          
T        Si     0.333166666667     0.744066666667     0.465850000000     0          
O        O      0.301500000000     0.936333333333     0.461450000000     0          
O        O      0.229966666667     0.885066666667     0.445150000000     0          
O        O      0.248266666667     0.957466666667     0.456900000000     0          
O        O      0.075133333333     0.704233333333     0.255950000000     0          
T        Si     0.255933333333     0.922433333333     0.465850000000     0          
O        O      0.321766666667     0.885066666667     0.445150000000     0          
O        O      0.000000000000     0.910733333333     0.000000000000     0          
T        Si     0.333166666667     0.922433333333     0.465850000000     0          
T        Si     0.253433333333     0.666666666667     0.250000000000     0          
O        O      0.114933333333     0.770033333333     0.445150000000     0          
O        O      0.089266666667     0.755933333333     0.000000000000     0          
T        Si     0.077566666667     0.744066666667     0.465850000000     0          
T        Si     0.000000000000     0.920100000000     0.250000000000     0          
O        O      0.229966666667     0.678233333333     0.445150000000     0          
O        O      0.244066666667     0.666666666667     0.000000000000     0          
T        Si     0.255933333333     0.666833333333     0.465850000000     0          
T        Si     0.079900000000     0.746566666667     0.250000000000     0          
O        O      0.218400000000     0.988433333333     0.054850000000     0          
T        Si     0.255766666667     0.999833333333     0.034150000000     0          
O        O      0.011566666667     0.896633333333     0.054850000000     0          
T        Si     0.000166666667     0.922600000000     0.034150000000     0          
O        O      0.103366666667     0.781600000000     0.054850000000     0          
T        Si     0.077400000000     0.744233333333     0.034150000000     0          
O        O      0.254055555556     0.841444444444     0.205216666667     0          
O        O      0.233788888889     0.892711111111     0.221516666667     0          
O        O      0.179688888889     0.820311111111     0.209766666667     0          
O        O      0.222222222222     0.867044444444     0.166666666667     0          
O        O      0.259788888889     0.740211111111     0.410716666667     0          
T        Si     0.222388888889     0.855344444444     0.200816666667     0          
T        Si     0.302122222222     0.777777777778     0.416666666667     0          
O        O      0.158555555556     0.745944444444     0.205216666667     0          
O        O      0.107288888889     0.674411111111     0.221516666667     0          
O        O      0.179688888889     0.692711111111     0.209766666667     0          
O        O      0.132955555556     0.688511111111     0.166666666667     0          
O        O      0.259788888889     0.852911111111     0.410716666667     0          
T        Si     0.144655555556     0.700377777778     0.200816666667     0          
T        Si     0.222222222222     0.857677777778     0.416666666667     0          
O        O      0.254055555556     0.745944444444     0.205216666667     0          
O        O      0.325588888889     0.766211111111     0.221516666667     0          
O        O      0.307288888889     0.820311111111     0.209766666667     0          
O        O      0.311488888889     0.777777777778     0.166666666667     0          
O        O      0.147088888889     0.740211111111     0.410716666667     0          
T        Si     0.299622222222     0.777611111111     0.200816666667     0          
T        Si     0.142322222222     0.697877777778     0.416666666667     0          
O        O      0.285888888889     0.809611111111     0.128116666667     0          
O        O      0.003822222222     0.789344444444     0.111816666667     0          
O        O      0.264755555556     0.735244444444     0.123566666667     0          
O        O      0.184655555556     0.815344444444     0.422616666667     0          
T        Si     0.299788888889     0.777944444444     0.132516666667     0          
O        O      0.190388888889     0.809611111111     0.128116666667     0          
O        O      0.210655555556     0.881144444444     0.111816666667     0          
O        O      0.264755555556     0.862844444444     0.123566666667     0          
O        O      0.184655555556     0.702644444444     0.422616666667     0          
T        Si     0.222055555556     0.855177777778     0.132516666667     0          
O        O      0.190388888889     0.714111111111     0.128116666667     0          
O        O      0.118855555556     0.996177777778     0.111816666667     0          
O        O      0.137155555556     0.735244444444     0.123566666667     0          
O        O      0.297355555556     0.815344444444     0.422616666667     0          
T        Si     0.144822222222     0.700211111111     0.132516666667     0          
O        O      0.210655555556     0.996177777778     0.111816666667     0          
O        O      0.222222222222     0.688511111111     0.166666666667     0          
T        Si     0.222055555556     0.700211111111     0.132516666667     0          
T        Si     0.142322222222     0.777777777778     0.416666666667     0          
O        O      0.003822222222     0.881144444444     0.111816666667     0          
O        O      0.311488888889     0.867044444444     0.166666666667     0          
T        Si     0.299788888889     0.855177777778     0.132516666667     0          
T        Si     0.222222222222     0.697877777778     0.416666666667     0          
O        O      0.118855555556     0.789344444444     0.111816666667     0          
O        O      0.132955555556     0.777777777778     0.166666666667     0          
T        Si     0.144822222222     0.777944444444     0.132516666667     0          
T        Si     0.302122222222     0.857677777778     0.416666666667     0          
O        O      0.107288888889     0.766211111111     0.221516666667     0          
T        Si     0.144655555556     0.777611111111     0.200816666667     0          
O        O      0.233788888889     0.674411111111     0.221516666667     0          
T        Si     0.222388888889     0.700377777778     0.200816666667     0          
O        O      0.325588888889     0.892711111111     0.221516666667     0          
T        Si     0.299622222222     0.855344444444     0.200816666667     0          
O        O      0.142944444444     0.952555555556     0.371883333333     0          
O        O      0.122677777778     0.670488888889     0.388183333333     0          
O        O      0.068577777778     0.931422222222     0.376433333333     0          
O        O      0.111111111111     0.978155555556     0.333333333333     0          
O        O      0.148677777778     0.851322222222     0.077383333333     0          
T        Si     0.111277777778     0.966455555556     0.367483333333     0          
T        Si     0.191011111111     0.888888888889     0.083333333333     0          
O        O      0.047444444444     0.857055555556     0.371883333333     0          
O        O      0.329511111111     0.785522222222     0.388183333333     0          
O        O      0.068577777778     0.803822222222     0.376433333333     0          
O        O      0.021844444444     0.799622222222     0.333333333333     0          
O        O      0.148677777778     0.964022222222     0.077383333333     0          
T        Si     0.033544444444     0.811488888889     0.367483333333     0          
T        Si     0.111111111111     0.968788888889     0.083333333333     0          
O        O      0.142944444444     0.857055555556     0.371883333333     0          
O        O      0.214477777778     0.877322222222     0.388183333333     0          
O        O      0.196177777778     0.931422222222     0.376433333333     0          
O        O      0.200377777778     0.888888888889     0.333333333333     0          
O        O      0.035977777778     0.851322222222     0.077383333333     0          
T        Si     0.188511111111     0.888722222222     0.367483333333     0          
T        Si     0.031211111111     0.808988888889     0.083333333333     0          
O        O      0.174777777778     0.920722222222     0.294783333333     0          
O        O      0.226044444444     0.900455555556     0.278483333333     0          
O        O      0.153644444444     0.846355555556     0.290233333333     0          
O        O      0.073544444444     0.926455555556     0.089283333333     0          
T        Si     0.188677777778     0.889055555556     0.299183333333     0          
O        O      0.079277777778     0.920722222222     0.294783333333     0          
O        O      0.099544444444     0.992255555556     0.278483333333     0          
O        O      0.153644444444     0.973955555556     0.290233333333     0          
O        O      0.073544444444     0.813755555556     0.089283333333     0          
T        Si     0.110944444444     0.966288888889     0.299183333333     0          
O        O      0.079277777778     0.825222222222     0.294783333333     0          
O        O      0.007744444444     0.773955555556     0.278483333333     0          
O        O      0.026044444444     0.846355555556     0.290233333333     0          
O        O      0.186244444444     0.926455555556     0.089283333333     0          
T        Si     0.033711111111     0.811322222222     0.299183333333     0          
O        O      0.099544444444     0.773955555556     0.278483333333     0          
O        O      0.111111111111     0.799622222222     0.333333333333     0          
T        Si     0.110944444444     0.811322222222     0.299183333333     0          
T        Si     0.031211111111     0.888888888889     0.083333333333     0          
O        O      0.226044444444     0.992255555556     0.278483333333     0          
O        O      0.200377777778     0.978155555556     0.333333333333     0          
T        Si     0.188677777778     0.966288888889     0.299183333333     0          
T        Si     0.111111111111     0.808988888889     0.083333333333     0          
O        O      0.007744444444     0.900455555556     0.278483333333     0          
O        O      0.021844444444     0.888888888889     0.333333333333     0          
T        Si     0.033711111111     0.889055555556     0.299183333333     0          
T        Si     0.191011111111     0.968788888889     0.083333333333     0          
O        O      0.329511111111     0.877322222222     0.388183333333     0          
T        Si     0.033544444444     0.888722222222     0.367483333333     0          
O        O      0.122677777778     0.785522222222     0.388183333333     0          
T        Si     0.111277777778     0.811488888889     0.367483333333     0          
O        O      0.214477777778     0.670488888889     0.388183333333     0          
T        Si     0.188511111111     0.966455555556     0.367483333333     0          
O        O      0.031833333333     0.730333333333     0.538550000000     0          
O        O      0.011566666667     0.781600000000     0.554850000000     0          
O        O      0.290800000000     0.709200000000     0.543100000000     0          
O        O      0.000000000000     0.755933333333     0.500000000000     0          
O        O      0.037566666667     0.962433333333     0.744050000000     0          
T        Si     0.000166666667     0.744233333333     0.534150000000     0          
T        Si     0.079900000000     0.666666666667     0.750000000000     0          
O        O      0.269666666667     0.968166666667     0.538550000000     0          
O        O      0.218400000000     0.896633333333     0.554850000000     0          
O        O      0.290800000000     0.914933333333     0.543100000000     0          
O        O      0.244066666667     0.910733333333     0.500000000000     0          
O        O      0.037566666667     0.741800000000     0.744050000000     0          
T        Si     0.255766666667     0.922600000000     0.534150000000     0          
T        Si     0.000000000000     0.746566666667     0.750000000000     0          
O        O      0.031833333333     0.968166666667     0.538550000000     0          
O        O      0.103366666667     0.988433333333     0.554850000000     0          
O        O      0.085066666667     0.709200000000     0.543100000000     0          
O        O      0.089266666667     0.666666666667     0.500000000000     0          
O        O      0.258200000000     0.962433333333     0.744050000000     0          
T        Si     0.077400000000     0.999833333333     0.534150000000     0          
T        Si     0.253433333333     0.920100000000     0.750000000000     0          
O        O      0.063666666667     0.698500000000     0.961450000000     0          
O        O      0.114933333333     0.678233333333     0.945150000000     0          
O        O      0.042533333333     0.957466666667     0.956900000000     0          
O        O      0.295766666667     0.704233333333     0.755950000000     0          
T        Si     0.077566666667     0.666833333333     0.965850000000     0          
O        O      0.301500000000     0.698500000000     0.961450000000     0          
O        O      0.321766666667     0.770033333333     0.945150000000     0          
O        O      0.042533333333     0.751733333333     0.956900000000     0          
O        O      0.295766666667     0.924866666667     0.755950000000     0          
T        Si     0.333166666667     0.744066666667     0.965850000000     0          
O        O      0.301500000000     0.936333333333     0.961450000000     0          
O        O      0.229966666667     0.885066666667     0.945150000000     0          
O        O      0.248266666667     0.957466666667     0.956900000000     0          
O        O      0.075133333333     0.704233333333     0.755950000000     0          
T        Si     0.255933333333     0.922433333333     0.965850000000     0          
O        O      0.321766666667     0.885066666667     0.945150000000     0          
O        O      0.000000000000     0.910733333333     0.500000000000     0          
T        Si     0.333166666667     0.922433333333     0.965850000000     0          
T        Si     0.253433333333     0.666666666667     0.750000000000     0          
O        O      0.114933333333     0.770033333333     0.945150000000     0          
O        O      0.089266666667     0.755933333333     0.500000000000     0          
T        Si     0.077566666667     0.744066666667     0.965850000000     0          
T        Si     0.000000000000     0.920100000000     0.750000000000     0          
O        O      0.229966666667     0.678233333333     0.945150000000     0          
O        O      0.244066666667     0.666666666667     0.500000000000     0          
T        Si     0.255933333333     0.666833333333     0.965850000000     0          
T        Si     0.079900000000     0.746566666667     0.750000000000     0          
O        O      0.218400000000     0.988433333333     0.554850000000     0          
T        Si     0.255766666667     0.999833333333     0.534150000000     0          
O        O      0.011566666667     0.896633333333     0.554850000000     0          
T        Si     0.000166666667     0.922600000000     0.534150000000     0          
O        O      0.103366666667     0.781600000000     0.554850000000     0          
T        Si     0.077400000000     0.744233333333     0.534150000000     0          
O        O      0.254055555556     0.841444444444     0.705216666667     0          
O        O      0.233788888889     0.892711111111     0.721516666667     0          
O        O      0.179688888889     0.820311111111     0.709766666667     0          
O        O      0.222222222222     0.867044444444     0.666666666667     0          
O        O      0.259788888889     0.740211111111     0.910716666667     0          
T        Si     0.222388888889     0.855344444444     0.700816666667     0          
T        Si     0.302122222222     0.777777777778     0.916666666667     0          
O        O      0.158555555556     0.745944444444     0.705216666667     0          
O        O      0.107288888889     0.674411111111     0.721516666667     0          
O        O      0.179688888889     0.692711111111     0.709766666667     0          
O        O      0.132955555556     0.688511111111     0.666666666667     0          
O        O      0.259788888889     0.852911111111     0.910716666667     0          
T        Si     0.144655555556     0.700377777778     0.700816666667     0          
T        Si     0.222222222222     0.857677777778     0.916666666667     0          
O        O      0.254055555556     0.745944444444     0.705216666667     0          
O        O      0.325588888889     0.766211111111     0.721516666667     0          
O        O      0.307288888889     0.820311111111     0.709766666667     0          
O        O      0.311488888889     0.777777777778     0.666666666667     0          
O        O      0.147088888889     0.740211111111     0.910716666667     0          
T        Si     0.299622222222     0.777611111111     0.700816666667     0          
T        Si     0.142322222222     0.697877777778     0.916666666667     0          
O        O      0.285888888889     0.809611111111     0.628116666667     0          
O        O      0.003822222222     0.789344444444     0.611816666667     0          
O        O      0.264755555556     0.735244444444     0.623566666667     0          
O        O      0.184655555556     0.815344444444     0.922616666667     0          
T        Si     0.299788888889     0.777944444444     0.632516666667     0          
O        O      0.190388888889     0.809611111111     0.628116666667     0          
O        O      0.210655555556     0.881144444444     0.611816666667     0          
O        O      0.264755555556     0.862844444444     0.623566666667     0          
O        O      0.184655555556     0.702644444444     0.922616666667     0          
T        Si     0.222055555556     0.855177777778     0.632516666667     0          
O        O      0.190388888889     0.714111111111     0.628116666667     0          
O        O      0.118855555556     0.996177777778     0.611816666667     0          
O        O      0.137155555556     0.735244444444     0.623566666667     0          
O        O      0.297355555556     0.815344444444     0.922616666667     0          
T        Si     0.144822222222     0.700211111111     0.632516666667     0          
O        O      0.210655555556     0.996177777778     0.611816666667     0          
O        O      0.222222222222     0.688511111111     0.666666666667     0          
T        Si     0.222055555556     0.700211111111     0.632516666667     0          
T        Si     0.142322222222     0.777777777778     0.916666666667     0          
O        O      0.003822222222     0.881144444444     0.611816666667     0          
O        O      0.311488888889     0.867044444444     0.666666666667     0          
T        Si     0.299788888889     0.855177777778     0.632516666667     0          
T        Si     0.222222222222     0.697877777778     0.916666666667     0          
O        O      0.118855555556     0.789344444444     0.611816666667     0          
O        O      0.132955555556     0.777777777778     0.666666666667     0          
T        Si     0.144822222222     0.777944444444     0.632516666667     0          
T        Si     0.302122222222     0.857677777778     0.916666666667     0          
O        O      0.107288888889     0.766211111111     0.721516666667     0          
T        Si     0.144655555556     0.777611111111     0.700816666667     0          
O        O      0.233788888889     0.674411111111     0.721516666667     0          
T        Si     0.222388888889     0.700377777778     0.700816666667     0          
O        O      0.325588888889     0.892711111111     0.721516666667     0          
T        Si     0.299622222222     0.855344444444     0.700816666667     0          
O        O      0.142944444444     0.952555555556     0.871883333333     0          
O        O      0.122677777778     0.670488888889     0.888183333333     0          
O        O      0.068577777778     0.931422222222     0.876433333333     0          
O        O      0.111111111111     0.978155555556     0.833333333333     0          
O        O      0.148677777778     0.851322222222     0.577383333333     0          
T        Si     0.111277777778     0.966455555556     0.867483333333     0          
T        Si     0.191011111111     0.888888888889     0.583333333333     0          
O        O      0.047444444444     0.857055555556     0.871883333333     0          
O        O      0.329511111111     0.785522222222     0.888183333333     0          
O        O      0.068577777778     0.803822222222     0.876433333333     0          
O        O      0.021844444444     0.799622222222     0.833333333333     0          
O        O      0.148677777778     0.964022222222     0.577383333333     0          
T        Si     0.033544444444     0.811488888889     0.867483333333     0          
T        Si     0.111111111111     0.968788888889     0.583333333333     0          
O        O      0.142944444444     0.857055555556     0.871883333333     0          
O        O      0.214477777778     0.877322222222     0.888183333333     0          
O        O      0.196177777778     0.931422222222     0.876433333333     0          
O        O      0.200377777778     0.888888888889     0.833333333333     0          
O        O      0.035977777778     0.851322222222     0.577383333333     0          
T        Si     0.188511111111     0.888722222222     0.867483333333     0          
T        Si     0.031211111111     0.808988888889     0.583333333333     0          
O        O      0.174777777778     0.920722222222     0.794783333333     0          
O        O      0.226044444444     0.900455555556     0.778483333333     0          
O        O      0.153644444444     0.846355555556     0.790233333333     0          
O        O      0.073544444444     0.926455555556     0.589283333333     0          
T        Si     0.188677777778     0.889055555556     0.799183333333     0          
O        O      0.079277777778     0.920722222222     0.794783333333     0          
O        O      0.099544444444     0.992255555556     0.778483333333     0          
O        O      0.153644444444     0.973955555556     0.790233333333     0          
O        O      0.073544444444     0.813755555556     0.589283333333     0          
T        Si     0.110944444444     0.966288888889     0.799183333333     0          
O        O      0.079277777778     0.825222222222     0.794783333333     0          
O        O      0.007744444444     0.773955555556     0.778483333333     0          
O        O      0.026044444444     0.846355555556     0.790233333333     0          
O        O      0.186244444444     0.926455555556     0.589283333333     0          
T        Si     0.033711111111     0.811322222222     0.799183333333     0          
O        O      0.099544444444     0.773955555556     0.778483333333     0          
O        O      0.111111111111     0.799622222222     0.833333333333     0          
T        Si     0.110944444444     0.811322222222     0.799183333333     0          
T        Si     0.031211111111     0.888888888889     0.583333333333     0          
O        O      0.226044444444     0.992255555556     0.778483333333     0          
O        O      0.200377777778     0.978155555556     0.833333333333     0          
T        Si     0.188677777778     0.966288888889     0.799183333333     0          
T        Si     0.111111111111     0.808988888889     0.583333333333     0          
O        O      0.007744444444     0.900455555556     0.778483333333     0          
O        O      0.021844444444     0.888888888889     0.833333333333     0          
T        Si     0.033711111111     0.889055555556     0.799183333333     0          
T        Si     0.191011111111     0.968788888889     0.583333333333     0          
O        O      0.329511111111     0.877322222222     0.888183333333     0          
T        Si     0.033544444444     0.888722222222     0.867483333333     0          
O        O      0.122677777778     0.785522222222     0.888183333333     0          
T        Si     0.111277777778     0.811488888889     0.867483333333     0          
O        O      0.214477777778     0.670488888889     0.888183333333     0          
T        Si     0.188511111111     0.966455555556     0.867483333333     0          
O        O      0.365166666667     0.063666666667     0.038550000000     0          
O        O      0.344900000000     0.114933333333     0.054850000000     0          
O        O      0.624133333333     0.042533333333     0.043100000000     0          
O        O      0.333333333333     0.089266666667     0.000000000000     0          
O        O      0.370900000000     0.295766666667     0.244050000000     0          
T        Si     0.333500000000     0.077566666667     0.034150000000     0          
T        Si     0.413233333333     0.000000000000     0.250000000000     0          
O        O      0.603000000000     0.301500000000     0.038550000000     0          
O        O      0.551733333333     0.229966666667     0.054850000000     0          
O        O      0.624133333333     0.248266666667     0.043100000000     0          
O        O      0.577400000000     0.244066666667     0.000000000000     0          
O        O      0.370900000000     0.075133333333     0.244050000000     0          
T        Si     0.589100000000     0.255933333333     0.034150000000     0          
T        Si     0.333333333333     0.079900000000     0.250000000000     0          
O        O      0.365166666667     0.301500000000     0.038550000000     0          
O        O      0.436700000000     0.321766666667     0.054850000000     0          
O        O      0.418400000000     0.042533333333     0.043100000000     0          
O        O      0.422600000000     0.000000000000     0.000000000000     0          
O        O      0.591533333333     0.295766666667     0.244050000000     0          
T        Si     0.410733333333     0.333166666667     0.034150000000     0          
T        Si     0.586766666667     0.253433333333     0.250000000000     0          
O        O      0.397000000000     0.031833333333     0.461450000000     0          
O        O      0.448266666667     0.011566666667     0.445150000000     0          
O        O      0.375866666667     0.290800000000     0.456900000000     0          
O        O      0.629100000000     0.037566666667     0.255950000000     0          
T        Si     0.410900000000     0.000166666667     0.465850000000     0          
O        O      0.634833333333     0.031833333333     0.461450000000     0          
O        O      0.655100000000     0.103366666667     0.445150000000     0          
O        O      0.375866666667     0.085066666667     0.456900000000     0          
O        O      0.629100000000     0.258200000000     0.255950000000     0          
T        Si     0.666500000000     0.077400000000     0.465850000000     0          
O        O      0.634833333333     0.269666666667     0.461450000000     0          
O        O      0.563300000000     0.218400000000     0.445150000000     0          
O        O      0.581600000000     0.290800000000     0.456900000000     0          
O        O      0.408466666667     0.037566666667     0.255950000000     0          
T        Si     0.589266666667     0.255766666667     0.465850000000     0          
O        O      0.655100000000     0.218400000000     0.445150000000     0          
O        O      0.333333333333     0.244066666667     0.000000000000     0          
T        Si     0.666500000000     0.255766666667     0.465850000000     0          
T        Si     0.586766666667     0.000000000000     0.250000000000     0          
O        O      0.448266666667     0.103366666667     0.445150000000     0          
O        O      0.422600000000     0.089266666667     0.000000000000     0          
T        Si     0.410900000000     0.077400000000     0.465850000000     0          
T        Si     0.333333333333     0.253433333333     0.250000000000     0          
O        O      0.563300000000     0.011566666667     0.445150000000     0          
O        O      0.577400000000     0.000000000000     0.000000000000     0          
T        Si     0.589266666667     0.000166666667     0.465850000000     0          
T        Si     0.413233333333     0.079900000000     0.250000000000     0          
O        O      0.551733333333     0.321766666667     0.054850000000     0          
T        Si     0.589100000000     0.333166666667     0.034150000000     0          
O        O      0.344900000000     0.229966666667     0.054850000000     0          
T        Si     0.333500000000     0.255933333333     0.034150000000     0          
O        O      0.436700000000     0.114933333333     0.054850000000     0          
T        Si     0.410733333333     0.077566666667     0.034150000000     0          
O        O      0.587388888889     0.174777777778     0.205216666667     0          
O        O      0.567122222222     0.226044444444     0.221516666667     0          
O        O      0.513022222222     0.153644444444     0.209766666667     0          
O        O      0.555555555556     0.200377777778     0.166666666667     0          
O        O      0.593122222222     0.073544444444     0.410716666667     0          
T        Si     0.555722222222     0.188677777778     0.200816666667     0          
T        Si     0.635455555556     0.111111111111     0.416666666667     0          
O        O      0.491888888889     0.079277777778     0.205216666667     0          
O        O      0.440622222222     0.007744444444     0.221516666667     0          
O        O      0.513022222222     0.026044444444     0.209766666667     0          
O        O      0.466288888889     0.021844444444     0.166666666667     0          
O        O      0.593122222222     0.186244444444     0.410716666667     0          
T        Si     0.477988888889     0.033711111111     0.200816666667     0          
T        Si     0.555555555556     0.191011111111     0.416666666667     0          
O        O      0.587388888889     0.079277777778     0.205216666667     0          
O        O      0.658922222222     0.099544444444     0.221516666667     0          
O        O      0.640622222222     0.153644444444     0.209766666667     0          
O        O      0.644822222222     0.111111111111     0.166666666667     0          
O        O      0.480422222222     0.073544444444     0.410716666667     0          
T        Si     0.632955555556     0.110944444444     0.200816666667     0          
T        Si     0.475655555556     0.031211111111     0.416666666667     0          
O        O      0.619222222222     0.142944444444     0.128116666667     0          
O        O      0.337155555556     0.122677777778     0.111816666667     0          
O        O      0.598088888889     0.068577777778     0.123566666667     0          
O        O      0.517988888889     0.148677777778     0.422616666667     0          
T        Si     0.633122222222     0.111277777778     0.132516666667     0          
O        O      0.523722222222     0.142944444444     0.128116666667     0          
O        O      0.543988888889     0.214477777778     0.111816666667     0          
O        O      0.598088888889     0.196177777778     0.123566666667     0          
O        O      0.517988888889     0.035977777778     0.422616666667     0          
T        Si     0.555388888889     0.188511111111     0.132516666667     0          
O        O      0.523722222222     0.047444444444     0.128116666667     0          
O        O      0.452188888889     0.329511111111     0.111816666667     0          
O        O      0.470488888889     0.068577777778     0.123566666667     0          
O        O      0.630688888889     0.148677777778     0.422616666667     0          
T        Si     0.478155555556     0.033544444444     0.132516666667     0          
O        O      0.543988888889     0.329511111111     0.111816666667     0          
O        O      0.555555555556     0.021844444444     0.166666666667     0          
T        Si     0.555388888889     0.033544444444     0.132516666667     0          
T        Si     0.475655555556     0.111111111111     0.416666666667     0          
O        O      0.337155555556     0.214477777778     0.111816666667     0          
O        O      0.644822222222     0.200377777778     0.166666666667     0          
T        Si     0.633122222222     0.188511111111     0.132516666667     0          
T        Si     0.555555555556     0.031211111111     0.416666666667     0          
O        O      0.452188888889     0.122677777778     0.111816666667     0          
O        O      0.466288888889     0.111111111111     0.166666666667     0          
T        Si     0.478155555556     0.111277777778     0.132516666667     0          
T        Si     0.635455555556     0.191011111111     0.416666666667     0          
O        O      0.440622222222     0.099544444444     0.221516666667     0          
T        Si     0.477988888889     0.110944444444     0.200816666667     0          
O        O      0.567122222222     0.007744444444     0.221516666667     0          
T        Si     0.555722222222     0.033711111111     0.200816666667     0          
O        O      0.658922222222     0.226044444444     0.221516666667     0          
T        Si     0.632955555556     0.188677777778     0.200816666667     0          
O        O      0.476277777778     0.285888888889     0.371883333333     0          
O        O      0.456011111111     0.003822222222     0.388183333333     0          
O        O      0.401911111111     0.264755555556     0.376433333333     0          
O        O      0.444444444444     0.311488888889     0.333333333333     0          
O        O      0.482011111111     0.184655555556     0.077383333333     0          
T        Si     0.444611111111     0.299788888889     0.367483333333     0          
T        Si     0.524344444444     0.222222222222     0.083333333333     0          
O        O      0.380777777778     0.190388888889     0.371883333333     0          
O        O      0.662844444444     0.118855555556     0.388183333333     0          
O        O      0.401911111111     0.137155555556     0.376433333333     0          
O        O      0.355177777778     0.132955555556     0.333333333333     0          
O        O      0.482011111111     0.297355555556     0.077383333333     0          
T        Si     0.366877777778     0.144822222222     0.367483333333     0          
T        Si     0.444444444444     0.302122222222     0.083333333333     0          
O        O      0.476277777778     0.190388888889     0.371883333333     0          
O        O      0.547811111111     0.210655555556     0.388183333333     0          
O        O      0.529511111111     0.264755555556     0.376433333333     0          
O        O      0.533711111111     0.222222222222     0.333333333333     0          
O        O      0.369311111111     0.184655555556     0.077383333333     0          
T        Si     0.521844444444     0.222055555556     0.367483333333     0          
T        Si     0.364544444444     0.142322222222     0.083333333333     0          
O        O      0.508111111111     0.254055555556     0.294783333333     0          
O        O      0.559377777778     0.233788888889     0.278483333333     0          
O        O      0.486977777778     0.179688888889     0.290233333333     0          
O        O      0.406877777778     0.259788888889     0.089283333333     0          
T        Si     0.522011111111     0.222388888889     0.299183333333     0          
O        O      0.412611111111     0.254055555556     0.294783333333     0          
O        O      0.432877777778     0.325588888889     0.278483333333     0          
O        O      0.486977777778     0.307288888889     0.290233333333     0          
O        O      0.406877777778     0.147088888889     0.089283333333     0          
T        Si     0.444277777778     0.299622222222     0.299183333333     0          
O        O      0.412611111111     0.158555555556     0.294783333333     0          
O        O      0.341077777778     0.107288888889     0.278483333333     0          
O        O      0.359377777778     0.179688888889     0.290233333333     0          
O        O      0.519577777778     0.259788888889     0.089283333333     0          
T        Si     0.367044444444     0.144655555556     0.299183333333     0          
O        O      0.432877777778     0.107288888889     0.278483333333     0          
O        O      0.444444444444     0.132955555556     0.333333333333     0          
T        Si     0.444277777778     0.144655555556     0.299183333333     0          
T        Si     0.364544444444     0.222222222222     0.083333333333     0          
O        O      0.559377777778     0.325588888889     0.278483333333     0          
O        O      0.533711111111     0.311488888889     0.333333333333     0          
T        Si     0.522011111111     0.299622222222     0.299183333333     0          
T        Si     0.444444444444     0.142322222222     0.083333333333     0          
O        O      0.341077777778     0.233788888889     0.278483333333     0          
O        O      0.355177777778     0.222222222222     0.333333333333     0          
T        Si     0.367044444444     0.222388888889     0.299183333333     0          
T        Si     0.524344444444     0.302122222222     0.083333333333     0          
O        O      0.662844444444     0.210655555556     0.388183333333     0          
T        Si     0.366877777778     0.222055555556     0.367483333333     0          
O        O      0.456011111111     0.118855555556     0.388183333333     0          
T        Si     0.444611111111     0.144822222222     0.367483333333     0          
O        O      0.547811111111     0.003822222222     0.388183333333     0          
T        Si     0.521844444444     0.299788888889     0.367483333333     0          
O        O      0.365166666667     0.063666666667     0.538550000000     0          
O        O      0.344900000000     0.114933333333     0.554850000000     0          
O        O      0.624133333333     0.042533333333     0.543100000000     0          
O        O      0.333333333333     0.089266666667     0.500000000000     0          
O        O      0.370900000000     0.295766666667     0.744050000000     0          
T        Si     0.333500000000     0.077566666667     0.534150000000     0          
T        Si     0.413233333333     0.000000000000     0.750000000000     0          
O        O      0.603000000000     0.301500000000     0.538550000000     0          
O        O      0.551733333333     0.229966666667     0.554850000000     0          
O        O      0.624133333333     0.248266666667     0.543100000000     0          
O        O      0.577400000000     0.244066666667     0.500000000000     0          
O        O      0.370900000000     0.075133333333     0.744050000000     0          
T        Si     0.589100000000     0.255933333333     0.534150000000     0          
T        Si     0.333333333333     0.079900000000     0.750000000000     0          
O        O      0.365166666667     0.301500000000     0.538550000000     0          
O        O      0.436700000000     0.321766666667     0.554850000000     0          
O        O      0.418400000000     0.042533333333     0.543100000000     0          
O        O      0.422600000000     0.000000000000     0.500000000000     0          
O        O      0.591533333333     0.295766666667     0.744050000000     0          
T        Si     0.410733333333     0.333166666667     0.534150000000     0          
T        Si     0.586766666667     0.253433333333     0.750000000000     0          
O        O      0.397000000000     0.031833333333     0.961450000000     0          
O        O      0.448266666667     0.011566666667     0.945150000000     0          
O        O      0.375866666667     0.290800000000     0.956900000000     0          
O        O      0.629100000000     0.037566666667     0.755950000000     0          
T        Si     0.410900000000     0.000166666667     0.965850000000     0          
O        O      0.634833333333     0.031833333333     0.961450000000     0          
O        O      0.655100000000     0.103366666667     0.945150000000     0          
O        O      0.375866666667     0.085066666667     0.956900000000     0          
O        O      0.629100000000     0.258200000000     0.755950000000     0          
T        Si     0.666500000000     0.077400000000     0.965850000000     0          
O        O      0.634833333333     0.269666666667     0.961450000000     0          
O        O      0.563300000000     0.218400000000     0.945150000000     0          
O        O      0.581600000000     0.290800000000     0.956900000000     0          
O        O      0.408466666667     0.037566666667     0.755950000000     0          
T        Si     0.589266666667     0.255766666667     0.965850000000     0          
O        O      0.655100000000     0.218400000000     0.945150000000     0          
O        O      0.333333333333     0.244066666667     0.500000000000     0          
T        Si     0.666500000000     0.255766666667     0.965850000000     0          
T        Si     0.586766666667     0.000000000000     0.750000000000     0          
O        O      0.448266666667     0.103366666667     0.945150000000     0          
O        O      0.422600000000     0.089266666667     0.500000000000     0          
T        Si     0.410900000000     0.077400000000     0.965850000000     0          
T        Si     0.333333333333     0.253433333333     0.750000000000     0          
O        O      0.563300000000     0.011566666667     0.945150000000     0          
O        O      0.577400000000     0.000000000000     0.500000000000     0          
T        Si     0.589266666667     0.000166666667     0.965850000000     0          
T        Si     0.413233333333     0.079900000000     0.750000000000     0          
O        O      0.551733333333     0.321766666667     0.554850000000     0          
T        Si     0.589100000000     0.333166666667     0.534150000000     0          
O        O      0.344900000000     0.229966666667     0.554850000000     0          
T        Si     0.333500000000     0.255933333333     0.534150000000     0          
O        O      0.436700000000     0.114933333333     0.554850000000     0          
T        Si     0.410733333333     0.077566666667     0.534150000000     0          
O        O      0.587388888889     0.174777777778     0.705216666667     0          
O        O      0.567122222222     0.226044444444     0.721516666667     0          
O        O      0.513022222222     0.153644444444     0.709766666667     0          
O        O      0.555555555556     0.200377777778     0.666666666667     0          
O        O      0.593122222222     0.073544444444     0.910716666667     0          
T        Si     0.555722222222     0.188677777778     0.700816666667     0          
T        Si     0.635455555556     0.111111111111     0.916666666667     0          
O        O      0.491888888889     0.079277777778     0.705216666667     0          
O        O      0.440622222222     0.007744444444     0.721516666667     0          
O        O      0.513022222222     0.026044444444     0.709766666667     0          
O        O      0.466288888889     0.021844444444     0.666666666667     0          
O        O      0.593122222222     0.186244444444     0.910716666667     0          
T        Si     0.477988888889     0.033711111111     0.700816666667     0          
T        Si     0.555555555556     0.191011111111     0.916666666667     0          
O        O      0.587388888889     0.079277777778     0.705216666667     0          
O        O      0.658922222222     0.099544444444     0.721516666667     0          
O        O      0.640622222222     0.153644444444     0.709766666667     0          
O        O      0.644822222222     0.111111111111     0.666666666667     0          
O        O      0.480422222222     0.073544444444     0.910716666667     0          
T        Si     0.632955555556     0.110944444444     0.700816666667     0          
T        Si     0.475655555556     0.031211111111     0.916666666667     0          
O        O      0.619222222222     0.142944444444     0.628116666667     0          
O        O      0.337155555556     0.122677777778     0.611816666667     0          
O        O      0.598088888889     0.068577777778     0.623566666667     0          
O        O      0.517988888889     0.148677777778     0.922616666667     0          
T        Si     0.633122222222     0.111277777778     0.632516666667     0          
O        O      0.523722222222     0.142944444444     0.628116666667     0          
O        O      0.543988888889     0.214477777778     0.611816666667     0          
O        O      0.598088888889     0.196177777778     0.623566666667     0          
O        O      0.517988888889     0.035977777778     0.922616666667     0          
T        Si     0.555388888889     0.188511111111     0.632516666667     0          
O        O      0.523722222222     0.047444444444     0.628116666667     0          
O        O      0.452188888889     0.329511111111     0.611816666667     0          
O        O      0.470488888889     0.068577777778     0.623566666667     0          
O        O      0.630688888889     0.148677777778     0.922616666667     0          
T        Si     0.478155555556     0.033544444444     0.632516666667     0          
O        O      0.543988888889     0.329511111111     0.611816666667     0          
O        O      0.555555555556     0.021844444444     0.666666666667     0          
T        Si     0.555388888889     0.033544444444     0.632516666667     0          
T        Si     0.475655555556     0.111111111111     0.916666666667     0          
O        O      0.337155555556     0.214477777778     0.611816666667     0          
O        O      0.644822222222     0.200377777778     0.666666666667     0          
T        Si     0.633122222222     0.188511111111     0.632516666667     0          
T        Si     0.555555555556     0.031211111111     0.916666666667     0          
O        O      0.452188888889     0.122677777778     0.611816666667     0          
O        O      0.466288888889     0.111111111111     0.666666666667     0          
T        Si     0.478155555556     0.111277777778     0.632516666667     0          
T        Si     0.635455555556     0.191011111111     0.916666666667     0          
O        O      0.440622222222     0.099544444444     0.721516666667     0          
T        Si     0.477988888889     0.110944444444     0.700816666667     0          
O        O      0.567122222222     0.007744444444     0.721516666667     0          
T        Si     0.555722222222     0.033711111111     0.700816666667     0          
O        O      0.658922222222     0.226044444444     0.721516666667     0          
T        Si     0.632955555556     0.188677777778     0.700816666667     0          
O        O      0.476277777778     0.285888888889     0.871883333333     0          
O        O      0.456011111111     0.003822222222     0.888183333333     0          
O        O      0.401911111111     0.264755555556     0.876433333333     0          
O        O      0.444444444444     0.311488888889     0.833333333333     0          
O        O      0.482011111111     0.184655555556     0.577383333333     0          
T        Si     0.444611111111     0.299788888889     0.867483333333     0          
T        Si     0.524344444444     0.222222222222     0.583333333333     0          
O        O      0.380777777778     0.190388888889     0.871883333333     0          
O        O      0.662844444444     0.118855555556     0.888183333333     0          
O        O      0.401911111111     0.137155555556     0.876433333333     0          
O        O      0.355177777778     0.132955555556     0.833333333333     0          
O        O      0.482011111111     0.297355555556     0.577383333333     0          
T        Si     0.366877777778     0.144822222222     0.867483333333     0          
T        Si     0.444444444444     0.302122222222     0.583333333333     0          
O        O      0.476277777778     0.190388888889     0.871883333333     0          
O        O      0.547811111111     0.210655555556     0.888183333333     0          
O        O      0.529511111111     0.264755555556     0.876433333333     0          
O        O      0.533711111111     0.222222222222     0.833333333333     0          
O        O      0.369311111111     0.184655555556     0.577383333333     0          
T        Si     0.521844444444     0.222055555556     0.867483333333     0          
T        Si     0.364544444444     0.142322222222     0.583333333333     0          
O        O      0.508111111111     0.254055555556     0.794783333333     0          
O        O      0.559377777778     0.233788888889     0.778483333333     0          
O        O      0.486977777778     0.179688888889     0.790233333333     0          
O        O      0.406877777778     0.259788888889     0.589283333333     0          
T        Si     0.522011111111     0.222388888889     0.799183333333     0          
O        O      0.412611111111     0.254055555556     0.794783333333     0          
O        O      0.432877777778     0.325588888889     0.778483333333     0          
O        O      0.486977777778     0.307288888889     0.790233333333     0          
O        O      0.406877777778     0.147088888889     0.589283333333     0          
T        Si     0.444277777778     0.299622222222     0.799183333333     0          
O        O      0.412611111111     0.158555555556     0.794783333333     0          
O        O      0.341077777778     0.107288888889     0.778483333333     0          
O        O      0.359377777778     0.179688888889     0.790233333333     0          
O        O      0.519577777778     0.259788888889     0.589283333333     0          
T        Si     0.367044444444     0.144655555556     0.799183333333     0          
O        O      0.432877777778     0.107288888889     0.778483333333     0          
O        O      0.444444444444     0.132955555556     0.833333333333     0          
T        Si     0.444277777778     0.144655555556     0.799183333333     0          
T        Si     0.364544444444     0.222222222222     0.583333333333     0          
O        O      0.559377777778     0.325588888889     0.778483333333     0          
O        O      0.533711111111     0.311488888889     0.833333333333     0          
T        Si     0.522011111111     0.299622222222     0.799183333333     0          
T        Si     0.444444444444     0.142322222222     0.583333333333     0          
O        O      0.341077777778     0.233788888889     0.778483333333     0          
O        O      0.355177777778     0.222222222222     0.833333333333     0          
T        Si     0.367044444444     0.222388888889     0.799183333333     0          
T        Si     0.524344444444     0.302122222222     0.583333333333     0          
O        O      0.662844444444     0.210655555556     0.888183333333     0          
T        Si     0.366877777778     0.222055555556     0.867483333333     0          
O        O      0.456011111111     0.118855555556     0.888183333333     0          
T        Si     0.444611111111     0.144822222222     0.867483333333     0          
O        O      0.547811111111     0.003822222222     0.888183333333     0          
T        Si     0.521844444444     0.299788888889     0.867483333333     0          
O        O      0.365166666667     0.397000000000     0.038550000000     0          
O        O      0.344900000000     0.448266666667     0.054850000000     0          
O        O      0.624133333333     0.375866666667     0.043100000000     0          
O        O      0.333333333333     0.422600000000     0.000000000000     0          
O        O      0.370900000000     0.629100000000     0.244050000000     0          
T        Si     0.333500000000     0.410900000000     0.034150000000     0          
T        Si     0.413233333333     0.333333333333     0.250000000000     0          
O        O      0.603000000000     0.634833333333     0.038550000000     0          
O        O      0.551733333333     0.563300000000     0.054850000000     0          
O        O      0.624133333333     0.581600000000     0.043100000000     0          
O        O      0.577400000000     0.577400000000     0.000000000000     0          
O        O      0.370900000000     0.408466666667     0.244050000000     0          
T        Si     0.589100000000     0.589266666667     0.034150000000     0          
T        Si     0.333333333333     0.413233333333     0.250000000000     0          
O        O      0.365166666667     0.634833333333     0.038550000000     0          
O        O      0.436700000000     0.655100000000     0.054850000000     0          
O        O      0.418400000000     0.375866666667     0.043100000000     0          
O        O      0.422600000000     0.333333333333     0.000000000000     0          
O        O      0.591533333333     0.629100000000     0.244050000000     0          
T        Si     0.410733333333     0.666500000000     0.034150000000     0          
T        Si     0.586766666667     0.586766666667     0.250000000000     0          
O        O      0.397000000000     0.365166666667     0.461450000000     0          
O        O      0.448266666667     0.344900000000     0.445150000000     0          
O        O      0.375866666667     0.624133333333     0.456900000000     0          
O        O      0.629100000000     0.370900000000     0.255950000000     0          
T        Si     0.410900000000     0.333500000000     0.465850000000     0          
O        O      0.634833333333     0.365166666667     0.461450000000     0          
O        O      0.655100000000     0.436700000000     0.445150000000     0          
O        O      0.375866666667     0.418400000000     0.456900000000     0          
O        O      0.629100000000     0.591533333333     0.255950000000     0          
T        Si     0.666500000000     0.410733333333     0.465850000000     0          
O        O      0.634833333333     0.603000000000     0.461450000000     0          
O        O      0.563300000000     0.551733333333     0.445150000000     0          
O        O      0.581600000000     0.624133333333     0.456900000000     0          
O        O      0.408466666667     0.370900000000     0.255950000000     0          
T        Si     0.589266666667     0.589100000000     0.465850000000     0          
O        O      0.655100000000     0.551733333333     0.445150000000     0          
O        O      0.333333333333     0.577400000000     0.000000000000     0          
T        Si     0.666500000000     0.589100000000     0.465850000000     0          
T        Si     0.586766666667     0.333333333333     0.250000000000     0          
O        O      0.448266666667     0.436700000000     0.445150000000     0          
O        O      0.422600000000     0.422600000000     0.000000000000     0          
T        Si     0.410900000000     0.410733333333     0.465850000000     0          
T        Si     0.333333333333     0.586766666667     0.250000000000     0          
O        O      0.563300000000     0.344900000000     0.445150000000     0          
O        O      0.577400000000     0.333333333333     0.000000000000     0          
T        Si     0.589266666667     0.333500000000     0.465850000000     0          
T        Si     0.413233333333     0.413233333333     0.250000000000     0          
O        O      0.551733333333     0.655100000000     0.054850000000     0          
T        Si     0.589100000000     0.666500000000     0.034150000000     0          
O        O      0.344900000000     0.563300000000     0.054850000000     0          
T        Si     0.333500000000     0.589266666667     0.034150000000     0          
O        O      0.436700000000     0.448266666667     0.054850000000     0          
T        Si     0.410733333333     0.410900000000     0.034150000000     0          
O        O      0.587388888889     0.508111111111     0.205216666667     0          
O        O      0.567122222222     0.559377777778     0.221516666667     0          
O        O      0.513022222222     0.486977777778     0.209766666667     0          
O        O      0.555555555556     0.533711111111     0.166666666667     0          
O        O      0.593122222222     0.406877777778     0.410716666667     0          
T        Si     0.555722222222     0.522011111111     0.200816666667     0          
T        Si     0.635455555556     0.444444444444     0.416666666667     0          
O        O      0.491888888889     0.412611111111     0.205216666667     0          
O        O      0.440622222222     0.341077777778     0.221516666667     0          
O        O      0.513022222222     0.359377777778     0.209766666667     0          
O        O      0.466288888889     0.355177777778     0.166666666667     0          
O        O      0.593122222222     0.519577777778     0.410716666667     0          
T        Si     0.477988888889     0.367044444444     0.200816666667     0          
T        Si     0.555555555556     0.524344444444     0.416666666667     0          
O        O      0.587388888889     0.412611111111     0.205216666667     0          
O        O      0.658922222222     0.432877777778     0.221516666667     0          
O        O      0.640622222222     0.486977777778     0.209766666667     0          
O        O      0.644822222222     0.444444444444     0.166666666667     0          
O        O      0.480422222222     0.406877777778     0.410716666667     0          
T        Si     0.632955555556     0.444277777778     0.200816666667     0          
T        Si     0.475655555556     0.364544444444     0.416666666667     0          
O        O      0.619222222222     0.476277777778     0.128116666667     0          
O        O      0.337155555556     0.456011111111     0.111816666667     0          
O        O      0.598088888889     0.401911111111     0.123566666667     0          
O        O      0.517988888889     0.482011111111     0.422616666667     0          
T        Si     0.633122222222     0.444611111111     0.132516666667     0          
O        O      0.523722222222     0.476277777778     0.128116666667     0          
O        O      0.543988888889     0.547811111111     0.111816666667     0          
O        O      0.598088888889     0.529511111111     0.123566666667     0          
O        O      0.517988888889     0.369311111111     0.422616666667     0          
T        Si     0.555388888889     0.521844444444     0.132516666667     0          
O        O      0.523722222222     0.380777777778     0.128116666667     0          
O        O      0.452188888889     0.662844444444     0.111816666667     0          
O        O      0.470488888889     0.401911111111     0.123566666667     0          
O        O      0.630688888889     0.482011111111     0.422616666667     0          
T        Si     0.478155555556     0.366877777778     0.132516666667     0          
O        O      0.543988888889     0.662844444444     0.111816666667     0          
O        O      0.555555555556     0.355177777778     0.166666666667     0          
T        Si     0.555388888889     0.366877777778     0.132516666667     0          
T        Si     0.475655555556     0.444444444444     0.416666666667     0          
O        O      0.337155555556     0.547811111111     0.111816666667     0          
O        O      0.644822222222     0.533711111111     0.166666666667     0          
T        Si     0.633122222222     0.521844444444     0.132516666667     0          
T        Si     0.555555555556     0.364544444444     0.416666666667     0          
O        O      0.452188888889     0.456011111111     0.111816666667     0          
O        O      0.466288888889     0.444444444444     0.166666666667     0          
T        Si     0.478155555556     0.444611111111     0.132516666667     0          
T        Si     0.635455555556     0.524344444444     0.416666666667     0          
O        O      0.440622222222     0.432877777778     0.221516666667     0          
T        Si     0.477988888889     0.444277777778     0.200816666667     0          
O        O      0.567122222222     0.341077777778     0.221516666667     0          
T        Si     0.555722222222     0.367044444444     0.200816666667     0          
O        O      0.658922222222     0.559377777778     0.221516666667     0          
T        Si     0.632955555556     0.522011111111     0.200816666667     0          
O        O      0.476277777778     0.619222222222     0.371883333333     0          
O        O      0.456011111111     0.337155555556     0.388183333333     0          
O        O      0.401911111111     0.598088888889     0.376433333333     0          
O        O      0.444444444444     0.644822222222     0.333333333333     0          
O        O      0.482011111111     0.517988888889     0.077383333333     0          
T        Si     0.444611111111     0.633122222222     0.367483333333     0          
T        Si     0.524344444444     0.555555555556     0.083333333333     0          
O        O      0.380777777778     0.523722222222     0.371883333333     0          
O        O      0.662844444444     0.452188888889     0.388183333333     0          
O        O      0.401911111111     0.470488888889     0.376433333333     0          
O        O      0.355177777778     0.466288888889     0.333333333333     0          
O        O      0.482011111111     0.630688888889     0.077383333333     0          
T        Si     0.366877777778     0.478155555556     0.367483333333     0          
T        Si     0.444444444444     0.635455555556     0.083333333333     0          
O        O      0.476277777778     0.523722222222     0.371883333333     0          
O        O      0.547811111111     0.543988888889     0.388183333333     0          
O        O      0.529511111111     0.598088888889     0.376433333333     0          
O        O      0.533711111111     0.555555555556     0.333333333333     0          
O        O      0.369311111111     0.517988888889     0.077383333333     0          
T        Si     0.521844444444     0.555388888889     0.367483333333     0          
T        Si     0.364544444444     0.475655555556     0.083333333333     0          
O        O      0.508111111111     0.587388888889     0.294783333333     0          
O        O      0.559377777778     0.567122222222     0.278483333333     0          
O        O      0.486977777778     0.513022222222     0.290233333333     0          
O        O      0.406877777778     0.593122222222     0.089283333333     0          
T        Si     0.522011111111     0.555722222222     0.299183333333     0          
O        O      0.412611111111     0.587388888889     0.294783333333     0          
O        O      0.432877777778     0.658922222222     0.278483333333     0          
O        O      0.486977777778     0.640622222222     0.290233333333     0          
O        O      0.406877777778     0.480422222222     0.089283333333     0          
T        Si     0.444277777778     0.632955555556     0.299183333333     0          
O        O      0.412611111111     0.491888888889     0.294783333333     0          
O        O      0.341077777778     0.440622222222     0.278483333333     0          
O        O      0.359377777778     0.513022222222     0.290233333333     0          
O        O      0.519577777778     0.593122222222     0.089283333333     0          
T        Si     0.367044444444     0.477988888889     0.299183333333     0          
O        O      0.432877777778     0.440622222222     0.278483333333     0          
O        O      0.444444444444     0.466288888889     0.333333333333     0          
T        Si     0.444277777778     0.477988888889     0.299183333333     0          
T        Si     0.364544444444     0.555555555556     0.083333333333     0          
O        O      0.559377777778     0.658922222222     0.278483333333     0          
O        O      0.533711111111     0.644822222222     0.333333333333     0          
T        Si     0.522011111111     0.632955555556     0.299183333333     0          
T        Si     0.444444444444     0.475655555556     0.083333333333     0          
O        O      0.341077777778     0.567122222222     0.278483333333     0          
O        O      0.355177777778     0.555555555556     0.333333333333     0          
T        Si     0.367044444444     0.555722222222     0.299183333333     0          
T        Si     0.524344444444     0.635455555556     0.083333333333     0          
O        O      0.662844444444     0.543988888889     0.388183333333     0          
T        Si     0.366877777778     0.555388888889     0.367483333333     0          
O        O      0.456011111111     0.452188888889     0.388183333333     0          
T        Si     0.444611111111     0.478155555556     0.367483333333     0          
O        O      0.547811111111     0.337155555556     0.388183333333     0          
T        Si     0.521844444444     0.633122222222     0.367483333333     0          
O        O      0.365166666667     0.397000000000     0.538550000000     0          
O        O      0.344900000000     0.448266666667     0.554850000000     0          
O        O      0.624133333333     0.375866666667     0.543100000000     0          
O        O      0.333333333333     0.422600000000     0.500000000000     0          
O        O      0.370900000000     0.629100000000     0.744050000000     0          
T        Si     0.333500000000     0.410900000000     0.534150000000     0          
T        Si     0.413233333333     0.333333333333     0.750000000000     0          
O        O      0.603000000000     0.634833333333     0.538550000000     0          
O        O      0.551733333333     0.563300000000     0.554850000000     0          
O        O      0.624133333333     0.581600000000     0.543100000000     0          
O        O      0.577400000000     0.577400000000     0.500000000000     0          
O        O      0.370900000000     0.408466666667     0.744050000000     0          
T        Si     0.589100000000     0.589266666667     0.534150000000     0          
T        Si     0.333333333333     0.413233333333     0.750000000000     0          
O        O      0.365166666667     0.634833333333     0.538550000000     0          
O        O      0.436700000000     0.655100000000     0.554850000000     0          
O        O      0.418400000000     0.375866666667     0.543100000000     0          
O        O      0.422600000000     0.333333333333     0.500000000000     0          
O        O      0.591533333333     0.629100000000     0.744050000000     0          
T        Si     0.410733333333     0.666500000000     0.534150000000     0          
T        Si     0.586766666667     0.586766666667     0.750000000000     0          
O        O      0.397000000000     0.365166666667     0.961450000000     0          
O        O      0.448266666667     0.344900000000     0.945150000000     0          
O        O      0.375866666667     0.624133333333     0.956900000000     0          
O        O      0.629100000000     0.370900000000     0.755950000000     0          
T        Si     0.410900000000     0.333500000000     0.965850000000     0          
O        O      0.634833333333     0.365166666667     0.961450000000     0          
O        O      0.655100000000     0.436700000000     0.945150000000     0          
O        O      0.375866666667     0.418400000000     0.956900000000     0          
O        O      0.629100000000     0.591533333333     0.755950000000     0          
T        Si     0.666500000000     0.410733333333     0.965850000000     0          
O        O      0.634833333333     0.603000000000     0.961450000000     0          
O        O      0.563300000000     0.551733333333     0.945150000000     0          
O        O      0.581600000000     0.624133333333     0.956900000000     0          
O        O      0.408466666667     0.370900000000     0.755950000000     0          
T        Si     0.589266666667     0.589100000000     0.965850000000     0          
O        O      0.655100000000     0.551733333333     0.945150000000     0          
O        O      0.333333333333     0.577400000000     0.500000000000     0          
T        Si     0.666500000000     0.589100000000     0.965850000000     0          
T        Si     0.586766666667     0.333333333333     0.750000000000     0          
O        O      0.448266666667     0.436700000000     0.945150000000     0          
O        O      0.422600000000     0.422600000000     0.500000000000     0          
T        Si     0.410900000000     0.410733333333     0.965850000000     0          
T        Si     0.333333333333     0.586766666667     0.750000000000     0          
O        O      0.563300000000     0.344900000000     0.945150000000     0          
O        O      0.577400000000     0.333333333333     0.500000000000     0          
T        Si     0.589266666667     0.333500000000     0.965850000000     0          
T        Si     0.413233333333     0.413233333333     0.750000000000     0          
O        O      0.551733333333     0.655100000000     0.554850000000     0          
T        Si     0.589100000000     0.666500000000     0.534150000000     0          
O        O      0.344900000000     0.563300000000     0.554850000000     0          
T        Si     0.333500000000     0.589266666667     0.534150000000     0          
O        O      0.436700000000     0.448266666667     0.554850000000     0          
T        Si     0.410733333333     0.410900000000     0.534150000000     0          
O        O      0.587388888889     0.508111111111     0.705216666667     0          
O        O      0.567122222222     0.559377777778     0.721516666667     0          
O        O      0.513022222222     0.486977777778     0.709766666667     0          
O        O      0.555555555556     0.533711111111     0.666666666667     0          
O        O      0.593122222222     0.406877777778     0.910716666667     0          
T        Si     0.555722222222     0.522011111111     0.700816666667     0          
T        Si     0.635455555556     0.444444444444     0.916666666667     0          
O        O      0.491888888889     0.412611111111     0.705216666667     0          
O        O      0.440622222222     0.341077777778     0.721516666667     0          
O        O      0.513022222222     0.359377777778     0.709766666667     0          
O        O      0.466288888889     0.355177777778     0.666666666667     0          
O        O      0.593122222222     0.519577777778     0.910716666667     0          
T        Si     0.477988888889     0.367044444444     0.700816666667     0          
T        Si     0.555555555556     0.524344444444     0.916666666667     0          
O        O      0.587388888889     0.412611111111     0.705216666667     0          
O        O      0.658922222222     0.432877777778     0.721516666667     0          
O        O      0.640622222222     0.486977777778     0.709766666667     0          
O        O      0.644822222222     0.444444444444     0.666666666667     0          
O        O      0.480422222222     0.406877777778     0.910716666667     0          
T        Si     0.632955555556     0.444277777778     0.700816666667     0          
T        Si     0.475655555556     0.364544444444     0.916666666667     0          
O        O      0.619222222222     0.476277777778     0.628116666667     0          
O        O      0.337155555556     0.456011111111     0.611816666667     0          
O        O      0.598088888889     0.401911111111     0.623566666667     0          
O        O      0.517988888889     0.482011111111     0.922616666667     0          
T        Si     0.633122222222     0.444611111111     0.632516666667     0          
O        O      0.523722222222     0.476277777778     0.628116666667     0          
O        O      0.543988888889     0.547811111111     0.611816666667     0          
O        O      0.598088888889     0.529511111111     0.623566666667     0          
O        O      0.517988888889     0.369311111111     0.922616666667     0          
T        Si     0.555388888889     0.521844444444     0.632516666667     0          
O        O      0.523722222222     0.380777777778     0.628116666667     0          
O        O      0.452188888889     0.662844444444     0.611816666667     0          
O        O      0.470488888889     0.401911111111     0.623566666667     0          
O        O      0.630688888889     0.482011111111     0.922616666667     0          
T        Si     0.478155555556     0.366877777778     0.632516666667     0          
O        O      0.543988888889     0.662844444444     0.611816666667     0          
O        O      0.555555555556     0.355177777778     0.666666666667     0          
T        Si     0.555388888889     0.366877777778     0.632516666667     0          
T        Si     0.475655555556     0.444444444444     0.916666666667     0          
O        O      0.337155555556     0.547811111111     0.611816666667     0          
O        O      0.644822222222     0.533711111111     0.666666666667     0          
T        Si     0.633122222222     0.521844444444     0.632516666667     0          
T        Si     0.555555555556     0.364544444444     0.916666666667     0          
O        O      0.452188888889     0.456011111111     0.611816666667     0          
O        O      0.466288888889     0.444444444444     0.666666666667     0          
T        Si     0.478155555556     0.444611111111     0.632516666667     0          
T        Si     0.635455555556     0.524344444444     0.916666666667     0          
O        O      0.440622222222     0.432877777778     0.721516666667     0          
T        Si     0.477988888889     0.444277777778     0.700816666667     0          
O        O      0.567122222222     0.341077777778     0.721516666667     0          
T        Si     0.555722222222     0.367044444444     0.700816666667     0          
O        O      0.658922222222     0.559377777778     0.721516666667     0          
T        Si     0.632955555556     0.522011111111     0.700816666667     0          
O        O      0.476277777778     0.619222222222     0.871883333333     0          
O        O      0.456011111111     0.337155555556     0.888183333333     0          
O        O      0.401911111111     0.598088888889     0.876433333333     0          
O        O      0.444444444444     0.644822222222     0.833333333333     0          
O        O      0.482011111111     0.517988888889     0.577383333333     0          
T        Si     0.444611111111     0.633122222222     0.867483333333     0          
T        Si     0.524344444444     0.555555555556     0.583333333333     0          
O        O      0.380777777778     0.523722222222     0.871883333333     0          
O        O      0.662844444444     0.452188888889     0.888183333333     0          
O        O      0.401911111111     0.470488888889     0.876433333333     0          
O        O      0.355177777778     0.466288888889     0.833333333333     0          
O        O      0.482011111111     0.630688888889     0.577383333333     0          
T        Si     0.366877777778     0.478155555556     0.867483333333     0          
T        Si     0.444444444444     0.635455555556     0.583333333333     0          
O        O      0.476277777778     0.523722222222     0.871883333333     0          
O        O      0.547811111111     0.543988888889     0.888183333333     0          
O        O      0.529511111111     0.598088888889     0.876433333333     0          
O        O      0.533711111111     0.555555555556     0.833333333333     0          
O        O      0.369311111111     0.517988888889     0.577383333333     0          
T        Si     0.521844444444     0.555388888889     0.867483333333     0          
T        Si     0.364544444444     0.475655555556     0.583333333333     0          
O        O      0.508111111111     0.587388888889     0.794783333333     0          
O        O      0.559377777778     0.567122222222     0.778483333333     0          
O        O      0.486977777778     0.513022222222     0.790233333333     0          
O        O      0.406877777778     0.593122222222     0.589283333333     0          
T        Si     0.522011111111     0.555722222222     0.799183333333     0          
O        O      0.412611111111     0.587388888889     0.794783333333     0          
O        O      0.432877777778     0.658922222222     0.778483333333     0          
O        O      0.486977777778     0.640622222222     0.790233333333     0          
O        O      0.406877777778     0.480422222222     0.589283333333     0          
T        Si     0.444277777778     0.632955555556     0.799183333333     0          
O        O      0.412611111111     0.491888888889     0.794783333333     0          
O        O      0.341077777778     0.440622222222     0.778483333333     0          
O        O      0.359377777778     0.513022222222     0.790233333333     0          
O        O      0.519577777778     0.593122222222     0.589283333333     0          
T        Si     0.367044444444     0.477988888889     0.799183333333     0          
O        O      0.432877777778     0.440622222222     0.778483333333     0          
O        O      0.444444444444     0.466288888889     0.833333333333     0          
T        Si     0.444277777778     0.477988888889     0.799183333333     0          
T        Si     0.364544444444     0.555555555556     0.583333333333     0          
O        O      0.559377777778     0.658922222222     0.778483333333     0          
O        O      0.533711111111     0.644822222222     0.833333333333     0          
T        Si     0.522011111111     0.632955555556     0.799183333333     0          
T        Si     0.444444444444     0.475655555556     0.583333333333     0          
O        O      0.341077777778     0.567122222222     0.778483333333     0          
O        O      0.355177777778     0.555555555556     0.833333333333     0          
T        Si     0.367044444444     0.555722222222     0.799183333333     0          
T        Si     0.524344444444     0.635455555556     0.583333333333     0          
O        O      0.662844444444     0.543988888889     0.888183333333     0          
T        Si     0.366877777778     0.555388888889     0.867483333333     0          
O        O      0.456011111111     0.452188888889     0.888183333333     0          
T        Si     0.444611111111     0.478155555556     0.867483333333     0          
O        O      0.547811111111     0.337155555556     0.888183333333     0          
T        Si     0.521844444444     0.633122222222     0.867483333333     0          
O        O      0.365166666667     0.730333333333     0.038550000000     0          
O        O      0.344900000000     0.781600000000     0.054850000000     0          
O        O      0.624133333333     0.709200000000     0.043100000000     0          
O        O      0.333333333333     0.755933333333     0.000000000000     0          
O        O      0.370900000000     0.962433333333     0.244050000000     0          
T        Si     0.333500000000     0.744233333333     0.034150000000     0          
T        Si     0.413233333333     0.666666666667     0.250000000000     0          
O        O      0.603000000000     0.968166666667     0.038550000000     0          
O        O      0.551733333333     0.896633333333     0.054850000000     0          
O        O      0.624133333333     0.914933333333     0.043100000000     0          
O        O      0.577400000000     0.910733333333     0.000000000000     0          
O        O      0.370900000000     0.741800000000     0.244050000000     0          
T        Si     0.589100000000     0.922600000000     0.034150000000     0          
T        Si     0.333333333333     0.746566666667     0.250000000000     0          
O        O      0.365166666667     0.968166666667     0.038550000000     0          
O        O      0.436700000000     0.988433333333     0.054850000000     0          
O        O      0.418400000000     0.709200000000     0.043100000000     0          
O        O      0.422600000000     0.666666666667     0.000000000000     0          
O        O      0.591533333333     0.962433333333     0.244050000000     0          
T        Si     0.410733333333     0.999833333333     0.034150000000     0          
T        Si     0.586766666667     0.920100000000     0.250000000000     0          
O        O      0.397000000000     0.698500000000     0.461450000000     0          
O        O      0.448266666667     0.678233333333     0.445150000000     0          
O        O      0.375866666667     0.957466666667     0.456900000000     0          
O        O      0.629100000000     0.704233333333     0.255950000000     0          
T        Si     0.410900000000     0.666833333333     0.465850000000     0          
O        O      0.634833333333     0.698500000000     0.461450000000     0          
O        O      0.655100000000     0.770033333333     0.445150000000     0          
O        O      0.375866666667     0.751733333333     0.456900000000     0          
O        O      0.629100000000     0.924866666667     0.255950000000     0          
T        Si     0.666500000000     0.744066666667     0.465850000000     0          
O        O      0.634833333333     0.936333333333     0.461450000000     0          
O        O      0.563300000000     0.885066666667     0.445150000000     0          
O        O      0.581600000000     0.957466666667     0.456900000000     0          
O        O      0.408466666667     0.704233333333     0.255950000000     0          
T        Si     0.589266666667     0.922433333333     0.465850000000     0          
O        O      0.655100000000     0.885066666667     0.445150000000     0          
O        O      0.333333333333     0.910733333333     0.000000000000     0          
T        Si     0.666500000000     0.922433333333     0.465850000000     0          
T        Si     0.586766666667     0.666666666667     0.250000000000     0          
O        O      0.448266666667     0.770033333333     0.445150000000     0          
O        O      0.422600000000     0.755933333333     0.000000000000     0          
T        Si     0.410900000000     0.744066666667     0.465850000000     0          
T        Si     0.333333333333     0.920100000000     0.250000000000     0          
O        O      0.563300000000     0.678233333333     0.445150000000     0          
O        O      0.577400000000     0.666666666667     0.000000000000     0          
T        Si     0.589266666667     0.666833333333     0.465850000000     0          
T        Si     0.413233333333     0.746566666667     0.250000000000     0          
O        O      0.551733333333     0.988433333333     0.054850000000     0          
T        Si     0.589100000000     0.999833333333     0.034150000000     0          
O        O      0.344900000000     0.896633333333     0.054850000000     0          
T        Si     0.333500000000     0.922600000000     0.034150000000     0          
O        O      0.436700000000     0.781600000000     0.054850000000     0          
T        Si     0.410733333333     0.744233333333     0.034150000000     0          
O        O      0.587388888889     0.841444444444     0.205216666667     0          
O        O      0.567122222222     0.892711111111     0.221516666667     0          
O        O      0.513022222222     0.820311111111     0.209766666667     0          
O        O      0.555555555556     0.867044444444     0.166666666667     0          
O        O      0.593122222222     0.740211111111     0.410716666667     0          
T        Si     0.555722222222     0.855344444444     0.200816666667     0          
T        Si     0.635455555556     0.777777777778     0.416666666667     0          
O        O      0.491888888889     0.745944444444     0.205216666667     0          
O        O      0.440622222222     0.674411111111     0.221516666667     0          
O        O      0.513022222222     0.692711111111     0.209766666667     0          
O        O      0.466288888889     0.688511111111     0.166666666667     0          
O        O      0.593122222222     0.852911111111     0.410716666667     0          
T        Si     0.477988888889     0.700377777778     0.200816666667     0          
T        Si     0.555555555556     0.857677777778     0.416666666667     0          
O        O      0.587388888889     0.745944444444     0.205216666667     0          
O        O      0.658922222222     0.766211111111     0.221516666667     0          
O        O      0.640622222222     0.820311111111     0.209766666667     0          
O        O      0.644822222222     0.777777777778     0.166666666667     0          
O        O      0.480422222222     0.740211111111     0.410716666667     0          
T        Si     0.632955555556     0.777611111111     0.200816666667     0          
T        Si     0.475655555556     0.697877777778     0.416666666667     0          
O        O      0.619222222222     0.809611111111     0.128116666667     0          
O        O      0.337155555556     0.789344444444     0.111816666667     0          
O        O      0.598088888889     0.735244444444     0.123566666667     0          
O        O      0.517988888889     0.815344444444     0.422616666667     0          
T        Si     0.633122222222     0.777944444444     0.132516666667     0          
O        O      0.523722222222     0.809611111111     0.128116666667     0          
O        O      0.543988888889     0.881144444444     0.111816666667     0          
O        O      0.598088888889     0.862844444444     0.123566666667     0          
O        O      0.517988888889     0.702644444444     0.422616666667     0          
T        Si     0.555388888889     0.855177777778     0.132516666667     0          
O        O      0.523722222222     0.714111111111     0.128116666667     0          
O        O      0.452188888889     0.996177777778     0.111816666667     0          
O        O      0.470488888889     0.735244444444     0.123566666667     0          
O        O      0.630688888889     0.815344444444     0.422616666667     0          
T        Si     0.478155555556     0.700211111111     0.132516666667     0          
O        O      0.543988888889     0.996177777778     0.111816666667     0          
O        O      0.555555555556     0.688511111111     0.166666666667     0          
T        Si     0.555388888889     0.700211111111     0.132516666667     0          
T        Si     0.475655555556     0.777777777778     0.416666666667     0          
O        O      0.337155555556     0.881144444444     0.111816666667     0          
O        O      0.644822222222     0.867044444444     0.166666666667     0          
T        Si     0.633122222222     0.855177777778     0.132516666667     0          
T        Si     0.555555555556     0.697877777778     0.416666666667     0          
O        O      0.452188888889     0.789344444444     0.111816666667     0          
O        O      0.466288888889     0.777777777778     0.166666666667     0          
T        Si     0.478155555556     0.777944444444     0.132516666667     0          
T        Si     0.635455555556     0.857677777778     0.416666666667     0          
O        O      0.440622222222     0.766211111111     0.221516666667     0          
T        Si     0.477988888889     0.777611111111     0.200816666667     0          
O        O      0.567122222222     0.674411111111     0.221516666667     0          
T        Si     0.555722222222     0.700377777778     0.200816666667     0          
O        O      0.658922222222     0.892711111111     0.221516666667     0          
T        Si     0.632955555556     0.855344444444     0.200816666667     0          
O        O      0.476277777778     0.952555555556     0.371883333333     0          
O        O      0.456011111111     0.670488888889     0.388183333333     0          
O        O      0.401911111111     0.931422222222     0.376433333333     0          
O        O      0.444444444444     0.978155555556     0.333333333333     0          
O        O      0.482011111111     0.851322222222     0.077383333333     0          
T        Si     0.444611111111     0.966455555556     0.367483333333     0          
T        Si     0.524344444444     0.888888888889     0.083333333333     0          
O        O      0.380777777778     0.857055555556     0.371883333333     0          
O        O      0.662844444444     0.785522222222     0.388183333333     0          
O        O      0.401911111111     0.803822222222     0.376433333333     0          
O        O      0.355177777778     0.799622222222     0.333333333333     0          
O        O      0.482011111111     0.964022222222     0.077383333333     0          
T        Si     0.366877777778     0.811488888889     0.367483333333     0          
T        Si     0.444444444444     0.968788888889     0.083333333333     0          
O        O      0.476277777778     0.857055555556     0.371883333333     0          
O        O      0.547811111111     0.877322222222     0.388183333333     0          
O        O      0.529511111111     0.931422222222     0.376433333333     0          
O        O      0.533711111111     0.888888888889     0.333333333333     0          
O        O      0.369311111111     0.851322222222     0.077383333333     0          
T        Si     0.521844444444     0.888722222222     0.367483333333     0          
T        Si     0.364544444444     0.808988888889     0.083333333333     0          
O        O      0.508111111111     0.920722222222     0.294783333333     0          
O        O      0.559377777778     0.900455555556     0.278483333333     0          
O        O      0.486977777778     0.846355555556     0.290233333333     0          
O        O      0.406877777778     0.926455555556     0.089283333333     0          
T        Si     0.522011111111     0.889055555556     0.299183333333     0          
O        O      0.412611111111     0.920722222222     0.294783333333     0          
O        O      0.432877777778     0.992255555556     0.278483333333     0          
O        O      0.486977777778     0.973955555556     0.290233333333     0          
O        O      0.406877777778     0.813755555556     0.089283333333     0          
T        Si     0.444277777778     0.966288888889     0.299183333333     0          
O        O      0.412611111111     0.825222222222     0.294783333333     0          
O        O      0.341077777778     0.773955555556     0.278483333333     0          
O        O      0.359377777778     0.846355555556     0.290233333333     0          
O        O      0.519577777778     0.926455555556     0.089283333333     0          
T        Si     0.367044444444     0.811322222222     0.299183333333     0          
O        O      0.432877777778     0.773955555556     0.278483333333     0          
O        O      0.444444444444     0.799622222222     0.333333333333     0          
T        Si     0.444277777778     0.811322222222     0.299183333333     0          
T        Si     0.364544444444     0.888888888889     0.083333333333     0          
O        O      0.559377777778     0.992255555556     0.278483333333     0          
O        O      0.533711111111     0.978155555556     0.333333333333     0          
T        Si     0.522011111111     0.966288888889     0.299183333333     0          
T        Si     0.444444444444     0.808988888889     0.083333333333     0          
O        O      0.341077777778     0.900455555556     0.278483333333     0          
O        O      0.355177777778     0.888888888889     0.333333333333     0          
T        Si     0.367044444444     0.889055555556     0.299183333333     0          
T        Si     0.524344444444     0.968788888889     0.083333333333     0          
O        O      0.662844444444     0.877322222222     0.388183333333     0          
T        Si     0.366877777778     0.888722222222     0.367483333333     0          
O        O      0.456011111111     0.785522222222     0.388183333333     0          
T        Si     0.444611111111     0.811488888889     0.367483333333     0          
O        O      0.547811111111     0.670488888889     0.388183333333     0          
T        Si     0.521844444444     0.966455555556     0.367483333333     0          
O        O      0.365166666667     0.730333333333     0.538550000000     0          
O        O      0.344900000000     0.781600000000     0.554850000000     0          
O        O      0.624133333333     0.709200000000     0.543100000000     0          
O        O      0.333333333333     0.755933333333     0.500000000000     0          
O        O      0.370900000000     0.962433333333     0.744050000000     0          
T        Si     0.333500000000     0.744233333333     0.534150000000     0          
T        Si     0.413233333333     0.666666666667     0.750000000000     0          
O        O      0.603000000000     0.968166666667     0.538550000000     0          
O        O      0.551733333333     0.896633333333     0.554850000000     0          
O        O      0.624133333333     0.914933333333     0.543100000000     0          
O        O      0.577400000000     0.910733333333     0.500000000000     0          
O        O      0.370900000000     0.741800000000     0.744050000000     0          
T        Si     0.589100000000     0.922600000000     0.534150000000     0          
T        Si     0.333333333333     0.746566666667     0.750000000000     0          
O        O      0.365166666667     0.968166666667     0.538550000000     0          
O        O      0.436700000000     0.988433333333     0.554850000000     0          
O        O      0.418400000000     0.709200000000     0.543100000000     0          
O        O      0.422600000000     0.666666666667     0.500000000000     0          
O        O      0.591533333333     0.962433333333     0.744050000000     0          
T        Si     0.410733333333     0.999833333333     0.534150000000     0          
T        Si     0.586766666667     0.920100000000     0.750000000000     0          
O        O      0.397000000000     0.698500000000     0.961450000000     0          
O        O      0.448266666667     0.678233333333     0.945150000000     0          
O        O      0.375866666667     0.957466666667     0.956900000000     0          
O        O      0.629100000000     0.704233333333     0.755950000000     0          
T        Si     0.410900000000     0.666833333333     0.965850000000     0          
O        O      0.634833333333     0.698500000000     0.961450000000     0          
O        O      0.655100000000     0.770033333333     0.945150000000     0          
O        O      0.375866666667     0.751733333333     0.956900000000     0          
O        O      0.629100000000     0.924866666667     0.755950000000     0          
T        Si     0.666500000000     0.744066666667     0.965850000000     0          
O        O      0.634833333333     0.936333333333     0.961450000000     0          
O        O      0.563300000000     0.885066666667     0.945150000000     0          
O        O      0.581600000000     0.957466666667     0.956900000000     0          
O        O      0.408466666667     0.704233333333     0.755950000000     0          
T        Si     0.589266666667     0.922433333333     0.965850000000     0          
O        O      0.655100000000     0.885066666667     0.945150000000     0          
O        O      0.333333333333     0.910733333333     0.500000000000     0          
T        Si     0.666500000000     0.922433333333     0.965850000000     0          
T        Si     0.586766666667     0.666666666667     0.750000000000     0          
O        O      0.448266666667     0.770033333333     0.945150000000     0          
O        O      0.422600000000     0.755933333333     0.500000000000     0          
T        Si     0.410900000000     0.744066666667     0.965850000000     0          
T        Si     0.333333333333     0.920100000000     0.750000000000     0          
O        O      0.563300000000     0.678233333333     0.945150000000     0          
O        O      0.577400000000     0.666666666667     0.500000000000     0          
T        Si     0.589266666667     0.666833333333     0.965850000000     0          
T        Si     0.413233333333     0.746566666667     0.750000000000     0          
O        O      0.551733333333     0.988433333333     0.554850000000     0          
T        Si     0.589100000000     0.999833333333     0.534150000000     0          
O        O      0.344900000000     0.896633333333     0.554850000000     0          
T        Si     0.333500000000     0.922600000000     0.534150000000     0          
O        O      0.436700000000     0.781600000000     0.554850000000     0          
T        Si     0.410733333333     0.744233333333     0.534150000000     0          
O        O      0.587388888889     0.841444444444     0.705216666667     0          
O        O      0.567122222222     0.892711111111     0.721516666667     0          
O        O      0.513022222222     0.820311111111     0.709766666667     0          
O        O      0.555555555556     0.867044444444     0.666666666667     0          
O        O      0.593122222222     0.740211111111     0.910716666667     0          
T        Si     0.555722222222     0.855344444444     0.700816666667     0          
T        Si     0.635455555556     0.777777777778     0.916666666667     0          
O        O      0.491888888889     0.745944444444     0.705216666667     0          
O        O      0.440622222222     0.674411111111     0.721516666667     0          
O        O      0.513022222222     0.692711111111     0.709766666667     0          
O        O      0.466288888889     0.688511111111     0.666666666667     0          
O        O      0.593122222222     0.852911111111     0.910716666667     0          
T        Si     0.477988888889     0.700377777778     0.700816666667     0          
T        Si     0.555555555556     0.857677777778     0.916666666667     0          
O        O      0.587388888889     0.745944444444     0.705216666667     0          
O        O      0.658922222222     0.766211111111     0.721516666667     0          
O        O      0.640622222222     0.820311111111     0.709766666667     0          
O        O      0.644822222222     0.777777777778     0.666666666667     0          
O        O      0.480422222222     0.740211111111     0.910716666667     0          
T        Si     0.632955555556     0.777611111111     0.700816666667     0          
T        Si     0.475655555556     0.697877777778     0.916666666667     0          
O        O      0.619222222222     0.809611111111     0.628116666667     0          
O        O      0.337155555556     0.789344444444     0.611816666667     0          
O        O      0.598088888889     0.735244444444     0.623566666667     0          
O        O      0.517988888889     0.815344444444     0.922616666667     0          
T        Si     0.633122222222     0.777944444444     0.632516666667     0          
O        O      0.523722222222     0.809611111111     0.628116666667     0          
O        O      0.543988888889     0.881144444444     0.611816666667     0          
O        O      0.598088888889     0.862844444444     0.623566666667     0          
O        O      0.517988888889     0.702644444444     0.922616666667     0          
T        Si     0.555388888889     0.855177777778     0.632516666667     0          
O        O      0.523722222222     0.714111111111     0.628116666667     0          
O        O      0.452188888889     0.996177777778     0.611816666667     0          
O        O      0.470488888889     0.735244444444     0.623566666667     0          
O        O      0.630688888889     0.815344444444     0.922616666667     0          
T        Si     0.478155555556     0.700211111111     0.632516666667     0          
O        O      0.543988888889     0.996177777778     0.611816666667     0          
O        O      0.555555555556     0.688511111111     0.666666666667     0          
T        Si     0.555388888889     0.700211111111     0.632516666667     0          
T        Si     0.475655555556     0.777777777778     0.916666666667     0          
O        O      0.337155555556     0.881144444444     0.611816666667     0          
O        O      0.644822222222     0.867044444444     0.666666666667     0          
T        Si     0.633122222222     0.855177777778     0.632516666667     0          
T        Si     0.555555555556     0.697877777778     0.916666666667     0          
O        O      0.452188888889     0.789344444444     0.611816666667     0          
O        O      0.466288888889     0.777777777778     0.666666666667     0          
T        Si     0.478155555556     0.777944444444     0.632516666667     0          
T        Si     0.635455555556     0.857677777778     0.916666666667     0          
O        O      0.440622222222     0.766211111111     0.721516666667     0          
T        Si     0.477988888889     0.777611111111     0.700816666667     0          
O        O      0.567122222222     0.674411111111     0.721516666667     0          
T        Si     0.555722222222     0.700377777778     0.700816666667     0          
O        O      0.658922222222     0.892711111111     0.721516666667     0          
T        Si     0.632955555556     0.855344444444     0.700816666667     0          
O        O      0.476277777778     0.952555555556     0.871883333333     0          
O        O      0.456011111111     0.670488888889     0.888183333333     0          
O        O      0.401911111111     0.931422222222     0.876433333333     0          
O        O      0.444444444444     0.978155555556     0.833333333333     0          
O        O      0.482011111111     0.851322222222     0.577383333333     0          
T        Si     0.444611111111     0.966455555556     0.867483333333     0          
T        Si     0.524344444444     0.888888888889     0.583333333333     0          
O        O      0.380777777778     0.857055555556     0.871883333333     0          
O        O      0.662844444444     0.785522222222     0.888183333333     0          
O        O      0.401911111111     0.803822222222     0.876433333333     0          
O        O      0.355177777778     0.799622222222     0.833333333333     0          
O        O      0.482011111111     0.964022222222     0.577383333333     0          
T        Si     0.366877777778     0.811488888889     0.867483333333     0          
T        Si     0.444444444444     0.968788888889     0.583333333333     0          
O        O      0.476277777778     0.857055555556     0.871883333333     0          
O        O      0.547811111111     0.877322222222     0.888183333333     0          
O        O      0.529511111111     0.931422222222     0.876433333333     0          
O        O      0.533711111111     0.888888888889     0.833333333333     0          
O        O      0.369311111111     0.851322222222     0.577383333333     0          
T        Si     0.521844444444     0.888722222222     0.867483333333     0          
T        Si     0.364544444444     0.808988888889     0.583333333333     0          
O        O      0.508111111111     0.920722222222     0.794783333333     0          
O        O      0.559377777778     0.900455555556     0.778483333333     0          
O        O      0.486977777778     0.846355555556     0.790233333333     0          
O        O      0.406877777778     0.926455555556     0.589283333333     0          
T        Si     0.522011111111     0.889055555556     0.799183333333     0          
O        O      0.412611111111     0.920722222222     0.794783333333     0          
O        O      0.432877777778     0.992255555556     0.778483333333     0          
O        O      0.486977777778     0.973955555556     0.790233333333     0          
O        O      0.406877777778     0.813755555556     0.589283333333     0          
T        Si     0.444277777778     0.966288888889     0.799183333333     0          
O        O      0.412611111111     0.825222222222     0.794783333333     0          
O        O      0.341077777778     0.773955555556     0.778483333333     0          
O        O      0.359377777778     0.846355555556     0.790233333333     0          
O        O      0.519577777778     0.926455555556     0.589283333333     0          
T        Si     0.367044444444     0.811322222222     0.799183333333     0          
O        O      0.432877777778     0.773955555556     0.778483333333     0          
O        O      0.444444444444     0.799622222222     0.833333333333     0          
T        Si     0.444277777778     0.811322222222     0.799183333333     0          
T        Si     0.364544444444     0.888888888889     0.583333333333     0          
O        O      0.559377777778     0.992255555556     0.778483333333     0          
O        O      0.533711111111     0.978155555556     0.833333333333     0          
T        Si     0.522011111111     0.966288888889     0.799183333333     0          
T        Si     0.444444444444     0.808988888889     0.583333333333     0          
O        O      0.341077777778     0.900455555556     0.778483333333     0          
O        O      0.355177777778     0.888888888889     0.833333333333     0          
T        Si     0.367044444444     0.889055555556     0.799183333333     0          
T        Si     0.524344444444     0.968788888889     0.583333333333     0          
O        O      0.662844444444     0.877322222222     0.888183333333     0          
T        Si     0.366877777778     0.888722222222     0.867483333333     0          
O        O      0.456011111111     0.785522222222     0.888183333333     0          
T        Si     0.444611111111     0.811488888889     0.867483333333     0          
O        O      0.547811111111     0.670488888889     0.888183333333     0          
T        Si     0.521844444444     0.966455555556     0.867483333333     0          
O        O      0.698500000000     0.063666666667     0.038550000000     0          
O        O      0.678233333333     0.114933333333     0.054850000000     0          
O        O      0.957466666667     0.042533333333     0.043100000000     0          
O        O      0.666666666667     0.089266666667     0.000000000000     0          
O        O      0.704233333333     0.295766666667     0.244050000000     0          
T        Si     0.666833333333     0.077566666667     0.034150000000     0          
T        Si     0.746566666667     0.000000000000     0.250000000000     0          
O        O      0.936333333333     0.301500000000     0.038550000000     0          
O        O      0.885066666667     0.229966666667     0.054850000000     0          
O        O      0.957466666667     0.248266666667     0.043100000000     0          
O        O      0.910733333333     0.244066666667     0.000000000000     0          
O        O      0.704233333333     0.075133333333     0.244050000000     0          
T        Si     0.922433333333     0.255933333333     0.034150000000     0          
T        Si     0.666666666667     0.079900000000     0.250000000000     0          
O        O      0.698500000000     0.301500000000     0.038550000000     0          
O        O      0.770033333333     0.321766666667     0.054850000000     0          
O        O      0.751733333333     0.042533333333     0.043100000000     0          
O        O      0.755933333333     0.000000000000     0.000000000000     0          
O        O      0.924866666667     0.295766666667     0.244050000000     0          
T        Si     0.744066666667     0.333166666667     0.034150000000     0          
T        Si     0.920100000000     0.253433333333     0.250000000000     0          
O        O      0.730333333333     0.031833333333     0.461450000000     0          
O        O      0.781600000000     0.011566666667     0.445150000000     0          
O        O      0.709200000000     0.290800000000     0.456900000000     0          
O        O      0.962433333333     0.037566666667     0.255950000000     0          
T        Si     0.744233333333     0.000166666667     0.465850000000     0          
O        O      0.968166666667     0.031833333333     0.461450000000     0          
O        O      0.988433333333     0.103366666667     0.445150000000     0          
O        O      0.709200000000     0.085066666667     0.456900000000     0          
O        O      0.962433333333     0.258200000000     0.255950000000     0          
T        Si     0.999833333333     0.077400000000     0.465850000000     0          
O        O      0.968166666667     0.269666666667     0.461450000000     0          
O        O      0.896633333333     0.218400000000     0.445150000000     0          
O        O      0.914933333333     0.290800000000     0.456900000000     0          
O        O      0.741800000000     0.037566666667     0.255950000000     0          
T        Si     0.922600000000     0.255766666667     0.465850000000     0          
O        O      0.988433333333     0.218400000000     0.445150000000     0          
O        O      0.666666666667     0.244066666667     0.000000000000     0          
T        Si     0.999833333333     0.255766666667     0.465850000000     0          
T        Si     0.920100000000     0.000000000000     0.250000000000     0          
O        O      0.781600000000     0.103366666667     0.445150000000     0          
O        O      0.755933333333     0.089266666667     0.000000000000     0          
T        Si     0.744233333333     0.077400000000     0.465850000000     0          
T        Si     0.666666666667     0.253433333333     0.250000000000     0          
O        O      0.896633333333     0.011566666667     0.445150000000     0          
O        O      0.910733333333     0.000000000000     0.000000000000     0          
T        Si     0.922600000000     0.000166666667     0.465850000000     0          
T        Si     0.746566666667     0.079900000000     0.250000000000     0          
O        O      0.885066666667     0.321766666667     0.054850000000     0          
T        Si     0.922433333333     0.333166666667     0.034150000000     0          
O        O      0.678233333333     0.229966666667     0.054850000000     0          
T        Si     0.666833333333     0.255933333333     0.034150000000     0          
O        O      0.770033333333     0.114933333333     0.054850000000     0          
T        Si     0.744066666667     0.077566666667     0.034150000000     0          
O        O      0.920722222222     0.174777777778     0.205216666667     0          
O        O      0.900455555556     0.226044444444     0.221516666667     0          
O        O      0.846355555556     0.153644444444     0.209766666667     0          
O        O      0.888888888889     0.200377777778     0.166666666667     0          
O        O      0.926455555556     0.073544444444     0.410716666667     0          
T        Si     0.889055555556     0.188677777778     0.200816666667     0          
T        Si     0.968788888889     0.111111111111     0.416666666667     0          
O        O      0.825222222222     0.079277777778     0.205216666667     0          
O        O      0.773955555556     0.007744444444     0.221516666667     0          
O        O      0.846355555556     0.026044444444     0.209766666667     0          
O        O      0.799622222222     0.021844444444     0.166666666667     0          
O        O      0.926455555556     0.186244444444     0.410716666667     0          
T        Si     0.811322222222     0.033711111111     0.200816666667     0          
T        Si     0.888888888889     0.191011111111     0.416666666667     0          
O        O      0.920722222222     0.079277777778     0.205216666667     0          
O        O      0.992255555556     0.099544444444     0.221516666667     0          
O        O      0.973955555556     0.153644444444     0.209766666667     0          
O        O      0.978155555556     0.111111111111     0.166666666667     0          
O        O      0.813755555556     0.073544444444     0.410716666667     0          
T        Si     0.966288888889     0.110944444444     0.200816666667     0          
T        Si     0.808988888889     0.031211111111     0.416666666667     0          
O        O      0.952555555556     0.142944444444     0.128116666667     0          
O        O      0.670488888889     0.122677777778     0.111816666667     0          
O        O      0.931422222222     0.068577777778     0.123566666667     0          
O        O      0.851322222222     0.148677777778     0.422616666667     0          
T        Si     0.966455555556     0.111277777778     0.132516666667     0          
O        O      0.857055555556     0.142944444444     0.128116666667     0          
O        O      0.877322222222     0.214477777778     0.111816666667     0          
O        O      0.931422222222     0.196177777778     0.123566666667     0          
O        O      0.851322222222     0.035977777778     0.422616666667     0          
T        Si     0.888722222222     0.188511111111     0.132516666667     0          
O        O      0.857055555556     0.047444444444     0.128116666667     0          
O        O      0.785522222222     0.329511111111     0.111816666667     0          
O        O      0.803822222222     0.068577777778     0.123566666667     0          
O        O      0.964022222222     0.148677777778     0.422616666667     0          
T        Si     0.811488888889     0.033544444444     0.132516666667     0          
O        O      0.877322222222     0.329511111111     0.111816666667     0          
O        O      0.888888888889     0.021844444444     0.166666666667     0          
T        Si     0.888722222222     0.033544444444     0.132516666667     0          
T        Si     0.808988888889     0.111111111111     0.416666666667     0          
O        O      0.670488888889     0.214477777778     0.111816666667     0          
O        O      0.978155555556     0.200377777778     0.166666666667     0          
T        Si     0.966455555556     0.188511111111     0.132516666667     0          
T        Si     0.888888888889     0.031211111111     0.416666666667     0          
O        O      0.785522222222     0.122677777778     0.111816666667     0          
O        O      0.799622222222     0.111111111111     0.166666666667     0          
T        Si     0.811488888889     0.111277777778     0.132516666667     0          
T        Si     0.968788888889     0.191011111111     0.416666666667     0          
O        O      0.773955555556     0.099544444444     0.221516666667     0          
T        Si     0.811322222222     0.110944444444     0.200816666667     0          
O        O      0.900455555556     0.007744444444     0.221516666667     0          
T        Si     0.889055555556     0.033711111111     0.200816666667     0          
O        O      0.992255555556     0.226044444444     0.221516666667     0          
T        Si     0.966288888889     0.188677777778     0.200816666667     0          
O        O      0.809611111111     0.285888888889     0.371883333333     0          
O        O      0.789344444444     0.003822222222     0.388183333333     0          
O        O      0.735244444444     0.264755555556     0.376433333333     0          
O        O      0.777777777778     0.311488888889     0.333333333333     0          
O        O      0.815344444444     0.184655555556     0.077383333333     0          
T        Si     0.777944444444     0.299788888889     0.367483333333     0          
T        Si     0.857677777778     0.222222222222     0.083333333333     0          
O        O      0.714111111111     0.190388888889     0.371883333333     0          
O        O      0.996177777778     0.118855555556     0.388183333333     0          
O        O      0.735244444444     0.137155555556     0.376433333333     0          
O        O      0.688511111111     0.132955555556     0.333333333333     0          
O        O      0.815344444444     0.297355555556     0.077383333333     0          
T        Si     0.700211111111     0.144822222222     0.367483333333     0          
T        Si     0.777777777778     0.302122222222     0.083333333333     0          
O        O      0.809611111111     0.190388888889     0.371883333333     0          
O        O      0.881144444444     0.210655555556     0.388183333333     0          
O        O      0.862844444444     0.264755555556     0.376433333333     0          
O        O      0.867044444444     0.222222222222     0.333333333333     0          
O        O      0.702644444444     0.184655555556     0.077383333333     0          
T        Si     0.855177777778     0.222055555556     0.367483333333     0          
T        Si     0.697877777778     0.142322222222     0.083333333333     0          
O        O      0.841444444444     0.254055555556     0.294783333333     0          
O        O      0.892711111111     0.233788888889     0.278483333333     0          
O        O      0.820311111111     0.179688888889     0.290233333333     0          
O        O      0.740211111111     0.259788888889     0.089283333333     0          
T        Si     0.855344444444     0.222388888889     0.299183333333     0          
O        O      0.745944444444     0.254055555556     0.294783333333     0          
O        O      0.766211111111     0.325588888889     0.278483333333     0          
O        O      0.820311111111     0.307288888889     0.290233333333     0          
O        O      0.740211111111     0.147088888889     0.089283333333     0          
T        Si     0.777611111111     0.299622222222     0.299183333333     0          
O        O      0.745944444444     0.158555555556     0.294783333333     0          
O        O      0.674411111111     0.107288888889     0.278483333333     0          
O        O      0.692711111111     0.179688888889     0.290233333333     0          
O        O      0.852911111111     0.259788888889     0.089283333333     0          
T        Si     0.700377777778     0.144655555556     0.299183333333     0          
O        O      0.766211111111     0.107288888889     0.278483333333     0          
O        O      0.777777777778     0.132955555556     0.333333333333     0          
T        Si     0.777611111111     0.144655555556     0.299183333333     0          
T        Si     0.697877777778     0.222222222222     0.083333333333     0          
O        O      0.892711111111     0.325588888889     0.278483333333     0          
O        O      0.867044444444     0.311488888889     0.333333333333     0          
T        Si     0.855344444444     0.299622222222     0.299183333333     0          
T        Si     0.777777777778     0.142322222222     0.083333333333     0          
O        O      0.674411111111     0.233788888889     0.278483333333     0          
O        O      0.688511111111     0.222222222222     0.333333333333     0          
T        Si     0.700377777778     0.222388888889     0.299183333333     0          
T        Si     0.857677777778     0.302122222222     0.083333333333     0          
O        O      0.996177777778     0.210655555556     0.388183333333     0          
T        Si     0.700211111111     0.222055555556     0.367483333333     0          
O        O      0.789344444444     0.118855555556     0.388183333333     0          
T        Si     0.777944444444     0.144822222222     0.367483333333     0          
O        O      0.881144444444     0.003822222222     0.388183333333     0          
T        Si     0.855177777778     0.299788888889     0.367483333333     0          
O        O      0.698500000000     0.063666666667     0.538550000000     0          
O        O      0.678233333333     0.114933333333     0.554850000000     0          
O        O      0.957466666667     0.042533333333     0.543100000000     0          
O        O      0.666666666667     0.089266666667     0.500000000000     0          
O        O      0.704233333333     0.295766666667     0.744050000000     0          
T        Si     0.666833333333     0.077566666667     0.534150000000     0          
T        Si     0.746566666667     0.000000000000     0.750000000000     0          
O        O      0.936333333333     0.301500000000     0.538550000000     0          
O        O      0.885066666667     0.229966666667     0.554850000000     0          
O        O      0.957466666667     0.248266666667     0.543100000000     0          
O        O      0.910733333333     0.244066666667     0.500000000000     0          
O        O      0.704233333333     0.075133333333     0.744050000000     0          
T        Si     0.922433333333     0.255933333333     0.534150000000     0          
T        Si     0.666666666667     0.079900000000     0.750000000000     0          
O        O      0.698500000000     0.301500000000     0.538550000000     0          
O        O      0.770033333333     0.321766666667     0.554850000000     0          
O        O      0.751733333333     0.042533333333     0.543100000000     0          
O        O      0.755933333333     0.000000000000     0.500000000000     0          
O        O      0.924866666667     0.295766666667     0.744050000000     0          
T        Si     0.744066666667     0.333166666667     0.534150000000     0          
T        Si     0.920100000000     0.253433333333     0.750000000000     0          
O        O      0.730333333333     0.031833333333     0.961450000000     0          
O        O      0.781600000000     0.011566666667     0.945150000000     0          
O        O      0.709200000000     0.290800000000     0.956900000000     0          
O        O      0.962433333333     0.037566666667     0.755950000000     0          
T        Si     0.744233333333     0.000166666667     0.965850000000     0          
O        O      0.968166666667     0.031833333333     0.961450000000     0          
O        O      0.988433333333     0.103366666667     0.945150000000     0          
O        O      0.709200000000     0.085066666667     0.956900000000     0          
O        O      0.962433333333     0.258200000000     0.755950000000     0          
T        Si     0.999833333333     0.077400000000     0.965850000000     0          
O        O      0.968166666667     0.269666666667     0.961450000000     0          
O        O      0.896633333333     0.218400000000     0.945150000000     0          
O        O      0.914933333333     0.290800000000     0.956900000000     0          
O        O      0.741800000000     0.037566666667     0.755950000000     0          
T        Si     0.922600000000     0.255766666667     0.965850000000     0          
O        O      0.988433333333     0.218400000000     0.945150000000     0          
O        O      0.666666666667     0.244066666667     0.500000000000     0          
T        Si     0.999833333333     0.255766666667     0.965850000000     0          
T        Si     0.920100000000     0.000000000000     0.750000000000     0          
O        O      0.781600000000     0.103366666667     0.945150000000     0          
O        O      0.755933333333     0.089266666667     0.500000000000     0          
T        Si     0.744233333333     0.077400000000     0.965850000000     0          
T        Si     0.666666666667     0.253433333333     0.750000000000     0          
O        O      0.896633333333     0.011566666667     0.945150000000     0          
O        O      0.910733333333     0.000000000000     0.500000000000     0          
T        Si     0.922600000000     0.000166666667     0.965850000000     0          
T        Si     0.746566666667     0.079900000000     0.750000000000     0          
O        O      0.885066666667     0.321766666667     0.554850000000     0          
T        Si     0.922433333333     0.333166666667     0.534150000000     0          
O        O      0.678233333333     0.229966666667     0.554850000000     0          
T        Si     0.666833333333     0.255933333333     0.534150000000     0          
O        O      0.770033333333     0.114933333333     0.554850000000     0          
T        Si     0.744066666667     0.077566666667     0.534150000000     0          
O        O      0.920722222222     0.174777777778     0.705216666667     0          
O        O      0.900455555556     0.226044444444     0.721516666667     0          
O        O      0.846355555556     0.153644444444     0.709766666667     0          
O        O      0.888888888889     0.200377777778     0.666666666667     0          
O        O      0.926455555556     0.073544444444     0.910716666667     0          
T        Si     0.889055555556     0.188677777778     0.700816666667     0          
T        Si     0.968788888889     0.111111111111     0.916666666667     0          
O        O      0.825222222222     0.079277777778     0.705216666667     0          
O        O      0.773955555556     0.007744444444     0.721516666667     0          
O        O      0.846355555556     0.026044444444     0.709766666667     0          
O        O      0.799622222222     0.021844444444     0.666666666667     0          
O        O      0.926455555556     0.186244444444     0.910716666667     0          
T        Si     0.811322222222     0.033711111111     0.700816666667     0          
T        Si     0.888888888889     0.191011111111     0.916666666667     0          
O        O      0.920722222222     0.079277777778     0.705216666667     0          
O        O      0.992255555556     0.099544444444     0.721516666667     0          
O        O      0.973955555556     0.153644444444     0.709766666667     0          
O        O      0.978155555556     0.111111111111     0.666666666667     0          
O        O      0.813755555556     0.073544444444     0.910716666667     0          
T        Si     0.966288888889     0.110944444444     0.700816666667     0          
T        Si     0.808988888889     0.031211111111     0.916666666667     0          
O        O      0.952555555556     0.142944444444     0.628116666667     0          
O        O      0.670488888889     0.122677777778     0.611816666667     0          
O        O      0.931422222222     0.068577777778     0.623566666667     0          
O        O      0.851322222222     0.148677777778     0.922616666667     0          
T        Si     0.966455555556     0.111277777778     0.632516666667     0          
O        O      0.857055555556     0.142944444444     0.628116666667     0          
O        O      0.877322222222     0.214477777778     0.611816666667     0          
O        O      0.931422222222     0.196177777778     0.623566666667     0          
O        O      0.851322222222     0.035977777778     0.922616666667     0          
T        Si     0.888722222222     0.188511111111     0.632516666667     0          
O        O      0.857055555556     0.047444444444     0.628116666667     0          
O        O      0.785522222222     0.329511111111     0.611816666667     0          
O        O      0.803822222222     0.068577777778     0.623566666667     0          
O        O      0.964022222222     0.148677777778     0.922616666667     0          
T        Si     0.811488888889     0.033544444444     0.632516666667     0          
O        O      0.877322222222     0.329511111111     0.611816666667     0          
O        O      0.888888888889     0.021844444444     0.666666666667     0          
T        Si     0.888722222222     0.033544444444     0.632516666667     0          
T        Si     0.808988888889     0.111111111111     0.916666666667     0          
O        O      0.670488888889     0.214477777778     0.611816666667     0          
O        O      0.978155555556     0.200377777778     0.666666666667     0          
T        Si     0.966455555556     0.188511111111     0.632516666667     0          
T        Si     0.888888888889     0.031211111111     0.916666666667     0          
O        O      0.785522222222     0.122677777778     0.611816666667     0          
O        O      0.799622222222     0.111111111111     0.666666666667     0          
T        Si     0.811488888889     0.111277777778     0.632516666667     0          
T        Si     0.968788888889     0.191011111111     0.916666666667     0          
O        O      0.773955555556     0.099544444444     0.721516666667     0          
T        Si     0.811322222222     0.110944444444     0.700816666667     0          
O        O      0.900455555556     0.007744444444     0.721516666667     0          
T        Si     0.889055555556     0.033711111111     0.700816666667     0          
O        O      0.992255555556     0.226044444444     0.721516666667     0          
T        Si     0.966288888889     0.188677777778     0.700816666667     0          
O        O      0.809611111111     0.285888888889     0.871883333333     0          
O        O      0.789344444444     0.003822222222     0.888183333333     0          
O        O      0.735244444444     0.264755555556     0.876433333333     0          
O        O      0.777777777778     0.311488888889     0.833333333333     0          
O        O      0.815344444444     0.184655555556     0.577383333333     0          
T        Si     0.777944444444     0.299788888889     0.867483333333     0          
T        Si     0.857677777778     0.222222222222     0.583333333333     0          
O        O      0.714111111111     0.190388888889     0.871883333333     0          
O        O      0.996177777778     0.118855555556     0.888183333333     0          
O        O      0.735244444444     0.137155555556     0.876433333333     0          
O        O      0.688511111111     0.132955555556     0.833333333333     0          
O        O      0.815344444444     0.297355555556     0.577383333333     0          
T        Si     0.700211111111     0.144822222222     0.867483333333     0          
T        Si     0.777777777778     0.302122222222     0.583333333333     0          
O        O      0.809611111111     0.190388888889     0.871883333333     0          
O        O      0.881144444444     0.210655555556     0.888183333333     0          
O        O      0.862844444444     0.264755555556     0.876433333333     0          
O        O      0.867044444444     0.222222222222     0.833333333333     0          
O        O      0.702644444444     0.184655555556     0.577383333333     0          
T        Si     0.855177777778     0.222055555556     0.867483333333     0          
T        Si     0.697877777778     0.142322222222     0.583333333333     0          
O        O      0.841444444444     0.254055555556     0.794783333333     0          
O        O      0.892711111111     0.233788888889     0.778483333333     0          
O        O      0.820311111111     0.179688888889     0.790233333333     0          
O        O      0.740211111111     0.259788888889     0.589283333333     0          
T        Si     0.855344444444     0.222388888889     0.799183333333     0          
O        O      0.745944444444     0.254055555556     0.794783333333     0          
O        O      0.766211111111     0.325588888889     0.778483333333     0          
O        O      0.820311111111     0.307288888889     0.790233333333     0          
O        O      0.740211111111     0.147088888889     0.589283333333     0          
T        Si     0.777611111111     0.299622222222     0.799183333333     0          
O        O      0.745944444444     0.158555555556     0.794783333333     0          
O        O      0.674411111111     0.107288888889     0.778483333333     0          
O        O      0.692711111111     0.179688888889     0.790233333333     0          
O        O      0.852911111111     0.259788888889     0.589283333333     0          
T        Si     0.700377777778     0.144655555556     0.799183333333     0          
O        O      0.766211111111     0.107288888889     0.778483333333     0          
O        O      0.777777777778     0.132955555556     0.833333333333     0          
T        Si     0.777611111111     0.144655555556     0.799183333333     0          
T        Si     0.697877777778     0.222222222222     0.583333333333     0          
O        O      0.892711111111     0.325588888889     0.778483333333     0          
O        O      0.867044444444     0.311488888889     0.833333333333     0          
T        Si     0.855344444444     0.299622222222     0.799183333333     0          
T        Si     0.777777777778     0.142322222222     0.583333333333     0          
O        O      0.674411111111     0.233788888889     0.778483333333     0          
O        O      0.688511111111     0.222222222222     0.833333333333     0          
T        Si     0.700377777778     0.222388888889     0.799183333333     0          
T        Si     0.857677777778     0.302122222222     0.583333333333     0          
O        O      0.996177777778     0.210655555556     0.888183333333     0          
T        Si     0.700211111111     0.222055555556     0.867483333333     0          
O        O      0.789344444444     0.118855555556     0.888183333333     0          
T        Si     0.777944444444     0.144822222222     0.867483333333     0          
O        O      0.881144444444     0.003822222222     0.888183333333     0          
T        Si     0.855177777778     0.299788888889     0.867483333333     0          
O        O      0.698500000000     0.397000000000     0.038550000000     0          
O        O      0.678233333333     0.448266666667     0.054850000000     0          
O        O      0.957466666667     0.375866666667     0.043100000000     0          
O        O      0.666666666667     0.422600000000     0.000000000000     0          
O        O      0.704233333333     0.629100000000     0.244050000000     0          
T        Si     0.666833333333     0.410900000000     0.034150000000     0          
T        Si     0.746566666667     0.333333333333     0.250000000000     0          
O        O      0.936333333333     0.634833333333     0.038550000000     0          
O        O      0.885066666667     0.563300000000     0.054850000000     0          
O        O      0.957466666667     0.581600000000     0.043100000000     0          
O        O      0.910733333333     0.577400000000     0.000000000000     0          
O        O      0.704233333333     0.408466666667     0.244050000000     0          
T        Si     0.922433333333     0.589266666667     0.034150000000     0          
T        Si     0.666666666667     0.413233333333     0.250000000000     0          
O        O      0.698500000000     0.634833333333     0.038550000000     0          
O        O      0.770033333333     0.655100000000     0.054850000000     0          
O        O      0.751733333333     0.375866666667     0.043100000000     0          
O        O      0.755933333333     0.333333333333     0.000000000000     0          
O        O      0.924866666667     0.629100000000     0.244050000000     0          
T        Si     0.744066666667     0.666500000000     0.034150000000     0          
T        Si     0.920100000000     0.586766666667     0.250000000000     0          
O        O      0.730333333333     0.365166666667     0.461450000000     0          
O        O      0.781600000000     0.344900000000     0.445150000000     0          
O        O      0.709200000000     0.624133333333     0.456900000000     0          
O        O      0.962433333333     0.370900000000     0.255950000000     0          
T        Si     0.744233333333     0.333500000000     0.465850000000     0          
O        O      0.968166666667     0.365166666667     0.461450000000     0          
O        O      0.988433333333     0.436700000000     0.445150000000     0          
O        O      0.709200000000     0.418400000000     0.456900000000     0          
O        O      0.962433333333     0.591533333333     0.255950000000     0          
T        Si     0.999833333333     0.410733333333     0.465850000000     0          
O        O      0.968166666667     0.603000000000     0.461450000000     0          
O        O      0.896633333333     0.551733333333     0.445150000000     0          
O        O      0.914933333333     0.624133333333     0.456900000000     0          
O        O      0.741800000000     0.370900000000     0.255950000000     0          
T        Si     0.922600000000     0.589100000000     0.465850000000     0          
O        O      0.988433333333     0.551733333333     0.445150000000     0          
O        O      0.666666666667     0.577400000000     0.000000000000     0          
T        Si     0.999833333333     0.589100000000     0.465850000000     0          
T        Si     0.920100000000     0.333333333333     0.250000000000     0          
O        O      0.781600000000     0.436700000000     0.445150000000     0          
O        O      0.755933333333     0.422600000000     0.000000000000     0          
T        Si     0.744233333333     0.410733333333     0.465850000000     0          
T        Si     0.666666666667     0.586766666667     0.250000000000     0          
O        O      0.896633333333     0.344900000000     0.445150000000     0          
O        O      0.910733333333     0.333333333333     0.000000000000     0          
T        Si     0.922600000000     0.333500000000     0.465850000000     0          
T        Si     0.746566666667     0.413233333333     0.250000000000     0          
O        O      0.885066666667     0.655100000000     0.054850000000     0          
T        Si     0.922433333333     0.666500000000     0.034150000000     0          
O        O      0.678233333333     0.563300000000     0.054850000000     0          
T        Si     0.666833333333     0.589266666667     0.034150000000     0          
O        O      0.770033333333     0.448266666667     0.054850000000     0          
T        Si     0.744066666667     0.410900000000     0.034150000000     0          
O        O      0.920722222222     0.508111111111     0.205216666667     0          
O        O      0.900455555556     0.559377777778     0.221516666667     0          
O        O      0.846355555556     0.486977777778     0.209766666667     0          
O        O      0.888888888889     0.533711111111     0.166666666667     0          
O        O      0.926455555556     0.406877777778     0.410716666667     0          
T        Si     0.889055555556     0.522011111111     0.200816666667     0          
T        Si     0.968788888889     0.444444444444     0.416666666667     0          
O        O      0.825222222222     0.412611111111     0.205216666667     0          
O        O      0.773955555556     0.341077777778     0.221516666667     0          
O        O      0.846355555556     0.359377777778     0.209766666667     0          
O        O      0.799622222222     0.355177777778     0.166666666667     0          
O        O      0.926455555556     0.519577777778     0.410716666667     0          
T        Si     0.811322222222     0.367044444444     0.200816666667     0          
T        Si     0.888888888889     0.524344444444     0.416666666667     0          
O        O      0.920722222222     0.412611111111     0.205216666667     0          
O        O      0.992255555556     0.432877777778     0.221516666667     0          
O        O      0.973955555556     0.486977777778     0.209766666667     0          
O        O      0.978155555556     0.444444444444     0.166666666667     0          
O        O      0.813755555556     0.406877777778     0.410716666667     0          
T        Si     0.966288888889     0.444277777778     0.200816666667     0          
T        Si     0.808988888889     0.364544444444     0.416666666667     0          
O        O      0.952555555556     0.476277777778     0.128116666667     0          
O        O      0.670488888889     0.456011111111     0.111816666667     0          
O        O      0.931422222222     0.401911111111     0.123566666667     0          
O        O      0.851322222222     0.482011111111     0.422616666667     0          
T        Si     0.966455555556     0.444611111111     0.132516666667     0          
O        O      0.857055555556     0.476277777778     0.128116666667     0          
O        O      0.877322222222     0.547811111111     0.111816666667     0          
O        O      0.931422222222     0.529511111111     0.123566666667     0          
O        O      0.851322222222     0.369311111111     0.422616666667     0          
T        Si     0.888722222222     0.521844444444     0.132516666667     0          
O        O      0.857055555556     0.380777777778     0.128116666667     0          
O        O      0.785522222222     0.662844444444     0.111816666667     0          
O        O      0.803822222222     0.401911111111     0.123566666667     0          
O        O      0.964022222222     0.482011111111     0.422616666667     0          
T        Si     0.811488888889     0.366877777778     0.132516666667     0          
O        O      0.877322222222     0.662844444444     0.111816666667     0          
O        O      0.888888888889     0.355177777778     0.166666666667     0          
T        Si     0.888722222222     0.366877777778     0.132516666667     0          
T        Si     0.808988888889     0.444444444444     0.416666666667     0          
O        O      0.670488888889     0.547811111111     0.111816666667     0          
O        O      0.978155555556     0.533711111111     0.166666666667     0          
T        Si     0.966455555556     0.521844444444     0.132516666667     0          
T        Si     0.888888888889     0.364544444444     0.416666666667     0          
O        O      0.785522222222     0.456011111111     0.111816666667     0          
O        O      0.799622222222     0.444444444444     0.166666666667     0          
T        Si     0.811488888889     0.444611111111     0.132516666667     0          
T        Si     0.968788888889     0.524344444444     0.416666666667     0          
O        O      0.773955555556     0.432877777778     0.221516666667     0          
T        Si     0.811322222222     0.444277777778     0.200816666667     0          
O        O      0.900455555556     0.341077777778     0.221516666667     0          
T        Si     0.889055555556     0.367044444444     0.200816666667     0          
O        O      0.992255555556     0.559377777778     0.221516666667     0          
T        Si     0.966288888889     0.522011111111     0.200816666667     0          
O        O      0.809611111111     0.619222222222     0.371883333333     0          
O        O      0.789344444444     0.337155555556     0.388183333333     0          
O        O      0.735244444444     0.598088888889     0.376433333333     0          
O        O      0.777777777778     0.644822222222     0.333333333333     0          
O        O      0.815344444444     0.517988888889     0.077383333333     0          
T        Si     0.777944444444     0.633122222222     0.367483333333     0          
T        Si     0.857677777778     0.555555555556     0.083333333333     0          
O        O      0.714111111111     0.523722222222     0.371883333333     0          
O        O      0.996177777778     0.452188888889     0.388183333333     0          
O        O      0.735244444444     0.470488888889     0.376433333333     0          
O        O      0.688511111111     0.466288888889     0.333333333333     0          
O        O      0.815344444444     0.630688888889     0.077383333333     0          
T        Si     0.700211111111     0.478155555556     0.367483333333     0          
T        Si     0.777777777778     0.635455555556     0.083333333333     0          
O        O      0.809611111111     0.523722222222     0.371883333333     0          
O        O      0.881144444444     0.543988888889     0.388183333333     0          
O        O      0.862844444444     0.598088888889     0.376433333333     0          
O        O      0.867044444444     0.555555555556     0.333333333333     0          
O        O      0.702644444444     0.517988888889     0.077383333333     0          
T        Si     0.855177777778     0.555388888889     0.367483333333     0          
T        Si     0.697877777778     0.475655555556     0.083333333333     0          
O        O      0.841444444444     0.587388888889     0.294783333333     0          
O        O      0.892711111111     0.567122222222     0.278483333333     0          
O        O      0.820311111111     0.513022222222     0.290233333333     0          
O        O      0.740211111111     0.593122222222     0.089283333333     0          
T        Si     0.855344444444     0.555722222222     0.299183333333     0          
O        O      0.745944444444     0.587388888889     0.294783333333     0          
O        O      0.766211111111     0.658922222222     0.278483333333     0          
O        O      0.820311111111     0.640622222222     0.290233333333     0          
O        O      0.740211111111     0.480422222222     0.089283333333     0          
T        Si     0.777611111111     0.632955555556     0.299183333333     0          
O        O      0.745944444444     0.491888888889     0.294783333333     0          
O        O      0.674411111111     0.440622222222     0.278483333333     0          
O        O      0.692711111111     0.513022222222     0.290233333333     0          
O        O      0.852911111111     0.593122222222     0.089283333333     0          
T        Si     0.700377777778     0.477988888889     0.299183333333     0          
O        O      0.766211111111     0.440622222222     0.278483333333     0          
O        O      0.777777777778     0.466288888889     0.333333333333     0          
T        Si     0.777611111111     0.477988888889     0.299183333333     0          
T        Si     0.697877777778     0.555555555556     0.083333333333     0          
O        O      0.892711111111     0.658922222222     0.278483333333     0          
O        O      0.867044444444     0.644822222222     0.333333333333     0          
T        Si     0.855344444444     0.632955555556     0.299183333333     0          
T        Si     0.777777777778     0.475655555556     0.083333333333     0          
O        O      0.674411111111     0.567122222222     0.278483333333     0          
O        O      0.688511111111     0.555555555556     0.333333333333     0          
T        Si     0.700377777778     0.555722222222     0.299183333333     0          
T        Si     0.857677777778     0.635455555556     0.083333333333     0          
O        O      0.996177777778     0.543988888889     0.388183333333     0          
T        Si     0.700211111111     0.555388888889     0.367483333333     0          
O        O      0.789344444444     0.452188888889     0.388183333333     0          
T        Si     0.777944444444     0.478155555556     0.367483333333     0          
O        O      0.881144444444     0.337155555556     0.388183333333     0          
T        Si     0.855177777778     0.633122222222     0.367483333333     0          
O        O      0.698500000000     0.397000000000     0.538550000000     0          
O        O      0.678233333333     0.448266666667     0.554850000000     0          
O        O      0.957466666667     0.375866666667     0.543100000000     0          
O        O      0.666666666667     0.422600000000     0.500000000000     0          
O        O      0.704233333333     0.629100000000     0.744050000000     0          
T        Si     0.666833333333     0.410900000000     0.534150000000     0          
T        Si     0.746566666667     0.333333333333     0.750000000000     0          
O        O      0.936333333333     0.634833333333     0.538550000000     0          
O        O      0.885066666667     0.563300000000     0.554850000000     0          
O        O      0.957466666667     0.581600000000     0.543100000000     0          
O        O      0.910733333333     0.577400000000     0.500000000000     0          
O        O      0.704233333333     0.408466666667     0.744050000000     0          
T        Si     0.922433333333     0.589266666667     0.534150000000     0          
T        Si     0.666666666667     0.413233333333     0.750000000000     0          
O        O      0.698500000000     0.634833333333     0.538550000000     0          
O        O      0.770033333333     0.655100000000     0.554850000000     0          
O        O      0.751733333333     0.375866666667     0.543100000000     0          
O        O      0.755933333333     0.333333333333     0.500000000000     0          
O        O      0.924866666667     0.629100000000     0.744050000000     0          
T        Si     0.744066666667     0.666500000000     0.534150000000     0          
T        Si     0.920100000000     0.586766666667     0.750000000000     0          
O        O      0.730333333333     0.365166666667     0.961450000000     0          
O        O      0.781600000000     0.344900000000     0.945150000000     0          
O        O      0.709200000000     0.624133333333     0.956900000000     0          
O        O      0.962433333333     0.370900000000     0.755950000000     0          
T        Si     0.744233333333     0.333500000000     0.965850000000     0          
O        O      0.968166666667     0.365166666667     0.961450000000     0          
O        O      0.988433333333     0.436700000000     0.945150000000     0          
O        O      0.709200000000     0.418400000000     0.956900000000     0          
O        O      0.962433333333     0.591533333333     0.755950000000     0          
T        Si     0.999833333333     0.410733333333     0.965850000000     0          
O        O      0.968166666667     0.603000000000     0.961450000000     0          
O        O      0.896633333333     0.551733333333     0.945150000000     0          
O        O      0.914933333333     0.624133333333     0.956900000000     0          
O        O      0.741800000000     0.370900000000     0.755950000000     0          
T        Si     0.922600000000     0.589100000000     0.965850000000     0          
O        O      0.988433333333     0.551733333333     0.945150000000     0          
O        O      0.666666666667     0.577400000000     0.500000000000     0          
T        Si     0.999833333333     0.589100000000     0.965850000000     0          
T        Si     0.920100000000     0.333333333333     0.750000000000     0          
O        O      0.781600000000     0.436700000000     0.945150000000     0          
O        O      0.755933333333     0.422600000000     0.500000000000     0          
T        Si     0.744233333333     0.410733333333     0.965850000000     0          
T        Si     0.666666666667     0.586766666667     0.750000000000     0          
O        O      0.896633333333     0.344900000000     0.945150000000     0          
O        O      0.910733333333     0.333333333333     0.500000000000     0          
T        Si     0.922600000000     0.333500000000     0.965850000000     0          
T        Si     0.746566666667     0.413233333333     0.750000000000     0          
O        O      0.885066666667     0.655100000000     0.554850000000     0          
T        Si     0.922433333333     0.666500000000     0.534150000000     0          
O        O      0.678233333333     0.563300000000     0.554850000000     0          
T        Si     0.666833333333     0.589266666667     0.534150000000     0          
O        O      0.770033333333     0.448266666667     0.554850000000     0          
T        Si     0.744066666667     0.410900000000     0.534150000000     0          
O        O      0.920722222222     0.508111111111     0.705216666667     0          
O        O      0.900455555556     0.559377777778     0.721516666667     0          
O        O      0.846355555556     0.486977777778     0.709766666667     0          
O        O      0.888888888889     0.533711111111     0.666666666667     0          
O        O      0.926455555556     0.406877777778     0.910716666667     0          
T        Si     0.889055555556     0.522011111111     0.700816666667     0          
T        Si     0.968788888889     0.444444444444     0.916666666667     0          
O        O      0.825222222222     0.412611111111     0.705216666667     0          
O        O      0.773955555556     0.341077777778     0.721516666667     0          
O        O      0.846355555556     0.359377777778     0.709766666667     0          
O        O      0.799622222222     0.355177777778     0.666666666667     0          
O        O      0.926455555556     0.519577777778     0.910716666667     0          
T        Si     0.811322222222     0.367044444444     0.700816666667     0          
T        Si     0.888888888889     0.524344444444     0.916666666667     0          
O        O      0.920722222222     0.412611111111     0.705216666667     0          
O        O      0.992255555556     0.432877777778     0.721516666667     0          
O        O      0.973955555556     0.486977777778     0.709766666667     0          
O        O      0.978155555556     0.444444444444     0.666666666667     0          
O        O      0.813755555556     0.406877777778     0.910716666667     0          
T        Si     0.966288888889     0.444277777778     0.700816666667     0          
T        Si     0.808988888889     0.364544444444     0.916666666667     0          
O        O      0.952555555556     0.476277777778     0.628116666667     0          
O        O      0.670488888889     0.456011111111     0.611816666667     0          
O        O      0.931422222222     0.401911111111     0.623566666667     0          
O        O      0.851322222222     0.482011111111     0.922616666667     0          
T        Si     0.966455555556     0.444611111111     0.632516666667     0          
O        O      0.857055555556     0.476277777778     0.628116666667     0          
O        O      0.877322222222     0.547811111111     0.611816666667     0          
O        O      0.931422222222     0.529511111111     0.623566666667     0          
O        O      0.851322222222     0.369311111111     0.922616666667     0          
T        Si     0.888722222222     0.521844444444     0.632516666667     0          
O        O      0.857055555556     0.380777777778     0.628116666667     0          
O        O      0.785522222222     0.662844444444     0.611816666667     0          
O        O      0.803822222222     0.401911111111     0.623566666667     0          
O        O      0.964022222222     0.482011111111     0.922616666667     0          
T        Si     0.811488888889     0.366877777778     0.632516666667     0          
O        O      0.877322222222     0.662844444444     0.611816666667     0          
O        O      0.888888888889     0.355177777778     0.666666666667     0          
T        Si     0.888722222222     0.366877777778     0.632516666667     0          
T        Si     0.808988888889     0.444444444444     0.916666666667     0          
O        O      0.670488888889     0.547811111111     0.611816666667     0          
O        O      0.978155555556     0.533711111111     0.666666666667     0          
T        Si     0.966455555556     0.521844444444     0.632516666667     0          
T        Si     0.888888888889     0.364544444444     0.916666666667     0          
O        O      0.785522222222     0.456011111111     0.611816666667     0          
O        O      0.799622222222     0.444444444444     0.666666666667     0          
T        Si     0.811488888889     0.444611111111     0.632516666667     0          
T        Si     0.968788888889     0.524344444444     0.916666666667     0          
O        O      0.773955555556     0.432877777778     0.721516666667     0          
T        Si     0.811322222222     0.444277777778     0.700816666667     0          
O        O      0.900455555556     0.341077777778     0.721516666667     0          
T        Si     0.889055555556     0.367044444444     0.700816666667     0          
O        O      0.992255555556     0.559377777778     0.721516666667     0          
T        Si     0.966288888889     0.522011111111     0.700816666667     0          
O        O      0.809611111111     0.619222222222     0.871883333333     0          
O        O      0.789344444444     0.337155555556     0.888183333333     0          
O        O      0.735244444444     0.598088888889     0.876433333333     0          
O        O      0.777777777778     0.644822222222     0.833333333333     0          
O        O      0.815344444444     0.517988888889     0.577383333333     0          
T        Si     0.777944444444     0.633122222222     0.867483333333     0          
T        Si     0.857677777778     0.555555555556     0.583333333333     0          
O        O      0.714111111111     0.523722222222     0.871883333333     0          
O        O      0.996177777778     0.452188888889     0.888183333333     0          
O        O      0.735244444444     0.470488888889     0.876433333333     0          
O        O      0.688511111111     0.466288888889     0.833333333333     0          
O        O      0.815344444444     0.630688888889     0.577383333333     0          
T        Si     0.700211111111     0.478155555556     0.867483333333     0          
T        Si     0.777777777778     0.635455555556     0.583333333333     0          
O        O      0.809611111111     0.523722222222     0.871883333333     0          
O        O      0.881144444444     0.543988888889     0.888183333333     0          
O        O      0.862844444444     0.598088888889     0.876433333333     0          
O        O      0.867044444444     0.555555555556     0.833333333333     0          
O        O      0.702644444444     0.517988888889     0.577383333333     0          
T        Si     0.855177777778     0.555388888889     0.867483333333     0          
T        Si     0.697877777778     0.475655555556     0.583333333333     0          
O        O      0.841444444444     0.587388888889     0.794783333333     0          
O        O      0.892711111111     0.567122222222     0.778483333333     0          
O        O      0.820311111111     0.513022222222     0.790233333333     0          
O        O      0.740211111111     0.593122222222     0.589283333333     0          
T        Si     0.855344444444     0.555722222222     0.799183333333     0          
O        O      0.745944444444     0.587388888889     0.794783333333     0          
O        O      0.766211111111     0.658922222222     0.778483333333     0          
O        O      0.820311111111     0.640622222222     0.790233333333     0          
O        O      0.740211111111     0.480422222222     0.589283333333     0          
T        Si     0.777611111111     0.632955555556     0.799183333333     0          
O        O      0.745944444444     0.491888888889     0.794783333333     0          
O        O      0.674411111111     0.440622222222     0.778483333333     0          
O        O      0.692711111111     0.513022222222     0.790233333333     0          
O        O      0.852911111111     0.593122222222     0.589283333333     0          
T        Si     0.700377777778     0.477988888889     0.799183333333     0          
O        O      0.766211111111     0.440622222222     0.778483333333     0          
O        O      0.777777777778     0.466288888889     0.833333333333     0          
T        Si     0.777611111111     0.477988888889     0.799183333333     0          
T        Si     0.697877777778     0.555555555556     0.583333333333     0          
O        O      0.892711111111     0.658922222222     0.778483333333     0          
O        O      0.867044444444     0.644822222222     0.833333333333     0          
T        Si     0.855344444444     0.632955555556     0.799183333333     0          
T        Si     0.777777777778     0.475655555556     0.583333333333     0          
O        O      0.674411111111     0.567122222222     0.778483333333     0          
O        O      0.688511111111     0.555555555556     0.833333333333     0          
T        Si     0.700377777778     0.555722222222     0.799183333333     0          
T        Si     0.857677777778     0.635455555556     0.583333333333     0          
O        O      0.996177777778     0.543988888889     0.888183333333     0          
T        Si     0.700211111111     0.555388888889     0.867483333333     0          
O        O      0.789344444444     0.452188888889     0.888183333333     0          
T        Si     0.777944444444     0.478155555556     0.867483333333     0          
O        O      0.881144444444     0.337155555556     0.888183333333     0          
T        Si     0.855177777778     0.633122222222     0.867483333333     0          
O        O      0.698500000000     0.730333333333     0.038550000000     0          
O        O      0.678233333333     0.781600000000     0.054850000000     0          
O        O      0.957466666667     0.709200000000     0.043100000000     0          
O        O      0.666666666667     0.755933333333     0.000000000000     0          
O        O      0.704233333333     0.962433333333     0.244050000000     0          
T        Si     0.666833333333     0.744233333333     0.034150000000     0          
T        Si     0.746566666667     0.666666666667     0.250000000000     0          
O        O      0.936333333333     0.968166666667     0.038550000000     0          
O        O      0.885066666667     0.896633333333     0.054850000000     0          
O        O      0.957466666667     0.914933333333     0.043100000000     0          
O        O      0.910733333333     0.910733333333     0.000000000000     0          
O        O      0.704233333333     0.741800000000     0.244050000000     0          
T        Si     0.922433333333     0.922600000000     0.034150000000     0          
T        Si     0.666666666667     0.746566666667     0.250000000000     0          
O        O      0.698500000000     0.968166666667     0.038550000000     0          
O        O      0.770033333333     0.988433333333     0.054850000000     0          
O        O      0.751733333333     0.709200000000     0.043100000000     0          
O        O      0.755933333333     0.666666666667     0.000000000000     0          
O        O      0.924866666667     0.962433333333     0.244050000000     0          
T        Si     0.744066666667     0.999833333333     0.034150000000     0          
T        Si     0.920100000000     0.920100000000     0.250000000000     0          
O        O      0.730333333333     0.698500000000     0.461450000000     0          
O        O      0.781600000000     0.678233333333     0.445150000000     0          
O        O      0.709200000000     0.957466666667     0.456900000000     0          
O        O      0.962433333333     0.704233333333     0.255950000000     0          
T        Si     0.744233333333     0.666833333333     0.465850000000     0          
O        O      0.968166666667     0.698500000000     0.461450000000     0          
O        O      0.988433333333     0.770033333333     0.445150000000     0          
O        O      0.709200000000     0.751733333333     0.456900000000     0          
O        O      0.962433333333     0.924866666667     0.255950000000     0          
T        Si     0.999833333333     0.744066666667     0.465850000000     0          
O        O      0.968166666667     0.936333333333     0.461450000000     0          
O        O      0.896633333333     0.885066666667     0.445150000000     0          
O        O      0.914933333333     0.957466666667     0.456900000000     0          
O        O      0.741800000000     0.704233333333     0.255950000000     0          
T        Si     0.922600000000     0.922433333333     0.465850000000     0          
O        O      0.988433333333     0.885066666667     0.445150000000     0          
O        O      0.666666666667     0.910733333333     0.000000000000     0          
T        Si     0.999833333333     0.922433333333     0.465850000000     0          
T        Si     0.920100000000     0.666666666667     0.250000000000     0          
O        O      0.781600000000     0.770033333333     0.445150000000     0          
O        O      0.755933333333     0.755933333333     0.000000000000     0          
T        Si     0.744233333333     0.744066666667     0.465850000000     0          
T        Si     0.666666666667     0.920100000000     0.250000000000     0          
O        O      0.896633333333     0.678233333333     0.445150000000     0          
O        O      0.910733333333     0.666666666667     0.000000000000     0          
T        Si     0.922600000000     0.666833333333     0.465850000000     0          
T        Si     0.746566666667     0.746566666667     0.250000000000     0          
O        O      0.885066666667     0.988433333333     0.054850000000     0          
T        Si     0.922433333333     0.999833333333     0.034150000000     0          
O        O      0.678233333333     0.896633333333     0.054850000000     0          
T        Si     0.666833333333     0.922600000000     0.034150000000     0          
O        O      0.770033333333     0.781600000000     0.054850000000     0          
T        Si     0.744066666667     0.744233333333     0.034150000000     0          
O        O      0.920722222222     0.841444444444     0.205216666667     0          
O        O      0.900455555556     0.892711111111     0.221516666667     0          
O        O      0.846355555556     0.820311111111     0.209766666667     0          
O        O      0.888888888889     0.867044444444     0.166666666667     0          
O        O      0.926455555556     0.740211111111     0.410716666667     0          
T        Si     0.889055555556     0.855344444444     0.200816666667     0          
T        Si     0.968788888889     0.777777777778     0.416666666667     0          
O        O      0.825222222222     0.745944444444     0.205216666667     0          
O        O      0.773955555556     0.674411111111     0.221516666667     0          
O        O      0.846355555556     0.692711111111     0.209766666667     0          
O        O      0.799622222222     0.688511111111     0.166666666667     0          
O        O      0.926455555556     0.852911111111     0.410716666667     0          
T        Si     0.811322222222     0.700377777778     0.200816666667     0          
T        Si     0.888888888889     0.857677777778     0.416666666667     0          
O        O      0.920722222222     0.745944444444     0.205216666667     0          
O        O      0.992255555556     0.766211111111     0.221516666667     0          
O        O      0.973955555556     0.820311111111     0.209766666667     0          
O        O      0.978155555556     0.777777777778     0.166666666667     0          
O        O      0.813755555556     0.740211111111     0.410716666667     0          
T        Si     0.966288888889     0.777611111111     0.200816666667     0          
T        Si     0.808988888889     0.697877777778     0.416666666667     0          
O        O      0.952555555556     0.809611111111     0.128116666667     0          
O        O      0.670488888889     0.789344444444     0.111816666667     0          
O        O      0.931422222222     0.735244444444     0.123566666667     0          
O        O      0.851322222222     0.815344444444     0.422616666667     0          
T        Si     0.966455555556     0.777944444444     0.132516666667     0          
O        O      0.857055555556     0.809611111111     0.128116666667     0          
O        O      0.877322222222     0.881144444444     0.111816666667     0          
O        O      0.931422222222     0.862844444444     0.123566666667     0          
O        O      0.851322222222     0.702644444444     0.422616666667     0          
T        Si     0.888722222222     0.855177777778     0.132516666667     0          
O        O      0.857055555556     0.714111111111     0.128116666667     0          
O        O      0.785522222222     0.996177777778     0.111816666667     0          
O        O      0.803822222222     0.735244444444     0.123566666667     0          
O        O      0.964022222222     0.815344444444     0.422616666667     0          
T        Si     0.811488888889     0.700211111111     0.132516666667     0          
O        O      0.877322222222     0.996177777778     0.111816666667     0          
O        O      0.888888888889     0.688511111111     0.166666666667     0          
T        Si     0.888722222222     0.700211111111     0.132516666667     0          
T        Si     0.808988888889     0.777777777778     0.416666666667     0          
O        O      0.670488888889     0.881144444444     0.111816666667     0          
O        O      0.978155555556     0.867044444444     0.166666666667     0          
T        Si     0.966455555556     0.855177777778     0.132516666667     0          
T        Si     0.888888888889     0.697877777778     0.416666666667     0          
O        O      0.785522222222     0.789344444444     0.111816666667     0          
O        O      0.799622222222     0.777777777778     0.166666666667     0          
T        Si     0.811488888889     0.777944444444     0.132516666667     0          
T        Si     0.968788888889     0.857677777778     0.416666666667     0          
O        O      0.773955555556     0.766211111111     0.221516666667     0          
T        Si     0.811322222222     0.777611111111     0.200816666667     0          
O        O      0.900455555556     0.674411111111     0.221516666667     0          
T        Si     0.889055555556     0.700377777778     0.200816666667     0          
O        O      0.992255555556     0.892711111111     0.221516666667     0          
T        Si     0.966288888889     0.855344444444     0.200816666667     0          
O        O      0.809611111111     0.952555555556     0.371883333333     0          
O        O      0.789344444444     0.670488888889     0.388183333333     0          
O        O      0.735244444444     0.931422222222     0.376433333333     0          
O        O      0.777777777778     0.978155555556     0.333333333333     0          
O        O      0.815344444444     0.851322222222     0.077383333333     0          
T        Si     0.777944444444     0.966455555556     0.367483333333     0          
T        Si     0.857677777778     0.888888888889     0.083333333333     0          
O        O      0.714111111111     0.857055555556     0.371883333333     0          
O        O      0.996177777778     0.785522222222     0.388183333333     0          
O        O      0.735244444444     0.803822222222     0.376433333333     0          
O        O      0.688511111111     0.799622222222     0.333333333333     0          
O        O      0.815344444444     0.964022222222     0.077383333333     0          
T        Si     0.700211111111     0.811488888889     0.367483333333     0          
T        Si     0.777777777778     0.968788888889     0.083333333333     0          
O        O      0.809611111111     0.857055555556     0.371883333333     0          
O        O      0.881144444444     0.877322222222     0.388183333333     0          
O        O      0.862844444444     0.931422222222     0.376433333333     0          
O        O      0.867044444444     0.888888888889     0.333333333333     0          
O        O      0.702644444444     0.851322222222     0.077383333333     0          
T        Si     0.855177777778     0.888722222222     0.367483333333     0          
T        Si     0.697877777778     0.808988888889     0.083333333333     0          
O        O      0.841444444444     0.920722222222     0.294783333333     0          
O        O      0.892711111111     0.900455555556     0.278483333333     0          
O        O      0.820311111111     0.846355555556     0.290233333333     0          
O        O      0.740211111111     0.926455555556     0.089283333333     0          
T        Si     0.855344444444     0.889055555556     0.299183333333     0          
O        O      0.745944444444     0.920722222222     0.294783333333     0          
O        O      0.766211111111     0.992255555556     0.278483333333     0          
O        O      0.820311111111     0.973955555556     0.290233333333     0          
O        O      0.740211111111     0.813755555556     0.089283333333     0          
T        Si     0.777611111111     0.966288888889     0.299183333333     0          
O        O      0.745944444444     0.825222222222     0.294783333333     0          
O        O      0.674411111111     0.773955555556     0.278483333333     0          
O        O      0.692711111111     0.846355555556     0.290233333333     0          
O        O      0.852911111111     0.926455555556     0.089283333333     0          
T        Si     0.700377777778     0.811322222222     0.299183333333     0          
O        O      0.766211111111     0.773955555556     0.278483333333     0          
O        O      0.777777777778     0.799622222222     0.333333333333     0          
T        Si     0.777611111111     0.811322222222     0.299183333333     0          
T        Si     0.697877777778     0.888888888889     0.083333333333     0          
O        O      0.892711111111     0.992255555556     0.278483333333     0          
O        O      0.867044444444     0.978155555556     0.333333333333     0          
T        Si     0.855344444444     0.966288888889     0.299183333333     0          
T        Si     0.777777777778     0.808988888889     0.083333333333     0          
O        O      0.674411111111     0.900455555556     0.278483333333     0          
O        O      0.688511111111     0.888888888889     0.333333333333     0          
T        Si     0.700377777778     0.889055555556     0.299183333333     0          
T        Si     0.857677777778     0.968788888889     0.083333333333     0          
O        O      0.996177777778     0.877322222222     0.388183333333     0          
T        Si     0.700211111111     0.888722222222     0.367483333333     0          
O        O      0.789344444444     0.785522222222     0.388183333333     0          
T        Si     0.777944444444     0.811488888889     0.367483333333     0          
O        O      0.881144444444     0.670488888889     0.388183333333     0          
T        Si     0.855177777778     0.966455555556     0.367483333333     0          
O        O      0.698500000000     0.730333333333     0.538550000000     0          
O        O      0.678233333333     0.781600000000     0.554850000000     0          
O        O      0.957466666667     0.709200000000     0.543100000000     0          
O        O      0.666666666667     0.755933333333     0.500000000000     0          
O        O      0.704233333333     0.962433333333     0.744050000000     0          
T        Si     0.666833333333     0.744233333333     0.534150000000     0          
T        Si     0.746566666667     0.666666666667     0.750000000000     0          
O        O      0.936333333333     0.968166666667     0.538550000000     0          
O        O      0.885066666667     0.896633333333     0.554850000000     0          
O        O      0.957466666667     0.914933333333     0.543100000000     0          
O        O      0.910733333333     0.910733333333     0.500000000000     0          
O        O      0.704233333333     0.741800000000     0.744050000000     0          
T        Si     0.922433333333     0.922600000000     0.534150000000     0          
T        Si     0.666666666667     0.746566666667     0.750000000000     0          
O        O      0.698500000000     0.968166666667     0.538550000000     0          
O        O      0.770033333333     0.988433333333     0.554850000000     0          
O        O      0.751733333333     0.709200000000     0.543100000000     0          
O        O      0.755933333333     0.666666666667     0.500000000000     0          
O        O      0.924866666667     0.962433333333     0.744050000000     0          
T        Si     0.744066666667     0.999833333333     0.534150000000     0          
T        Si     0.920100000000     0.920100000000     0.750000000000     0          
O        O      0.730333333333     0.698500000000     0.961450000000     0          
O        O      0.781600000000     0.678233333333     0.945150000000     0          
O        O      0.709200000000     0.957466666667     0.956900000000     0          
O        O      0.962433333333     0.704233333333     0.755950000000     0          
T        Si     0.744233333333     0.666833333333     0.965850000000     0          
O        O      0.968166666667     0.698500000000     0.961450000000     0          
O        O      0.988433333333     0.770033333333     0.945150000000     0          
O        O      0.709200000000     0.751733333333     0.956900000000     0          
O        O      0.962433333333     0.924866666667     0.755950000000     0          
T        Si     0.999833333333     0.744066666667     0.965850000000     0          
O        O      0.968166666667     0.936333333333     0.961450000000     0          
O        O      0.896633333333     0.885066666667     0.945150000000     0          
O        O      0.914933333333     0.957466666667     0.956900000000     0          
O        O      0.741800000000     0.704233333333     0.755950000000     0          
T        Si     0.922600000000     0.922433333333     0.965850000000     0          
O        O      0.988433333333     0.885066666667     0.945150000000     0          
O        O      0.666666666667     0.910733333333     0.500000000000     0          
T        Si     0.999833333333     0.922433333333     0.965850000000     0          
T        Si     0.920100000000     0.666666666667     0.750000000000     0          
O        O      0.781600000000     0.770033333333     0.945150000000     0          
O        O      0.755933333333     0.755933333333     0.500000000000     0          
T        Si     0.744233333333     0.744066666667     0.965850000000     0          
T        Si     0.666666666667     0.920100000000     0.750000000000     0          
O        O      0.896633333333     0.678233333333     0.945150000000     0          
O        O      0.910733333333     0.666666666667     0.500000000000     0          
T        Si     0.922600000000     0.666833333333     0.965850000000     0          
T        Si     0.746566666667     0.746566666667     0.750000000000     0          
O        O      0.885066666667     0.988433333333     0.554850000000     0          
T        Si     0.922433333333     0.999833333333     0.534150000000     0          
O        O      0.678233333333     0.896633333333     0.554850000000     0          
T        Si     0.666833333333     0.922600000000     0.534150000000     0          
O        O      0.770033333333     0.781600000000     0.554850000000     0          
T        Si     0.744066666667     0.744233333333     0.534150000000     0          
O        O      0.920722222222     0.841444444444     0.705216666667     0          
O        O      0.900455555556     0.892711111111     0.721516666667     0          
O        O      0.846355555556     0.820311111111     0.709766666667     0          
O        O      0.888888888889     0.867044444444     0.666666666667     0          
O        O      0.926455555556     0.740211111111     0.910716666667     0          
T        Si     0.889055555556     0.855344444444     0.700816666667     0          
T        Si     0.968788888889     0.777777777778     0.916666666667     0          
O        O      0.825222222222     0.745944444444     0.705216666667     0          
O        O      0.773955555556     0.674411111111     0.721516666667     0          
O        O      0.846355555556     0.692711111111     0.709766666667     0          
O        O      0.799622222222     0.688511111111     0.666666666667     0          
O        O      0.926455555556     0.852911111111     0.910716666667     0          
T        Si     0.811322222222     0.700377777778     0.700816666667     0          
T        Si     0.888888888889     0.857677777778     0.916666666667     0          
O        O      0.920722222222     0.745944444444     0.705216666667     0          
O        O      0.992255555556     0.766211111111     0.721516666667     0          
O        O      0.973955555556     0.820311111111     0.709766666667     0          
O        O      0.978155555556     0.777777777778     0.666666666667     0          
O        O      0.813755555556     0.740211111111     0.910716666667     0          
T        Si     0.966288888889     0.777611111111     0.700816666667     0          
T        Si     0.808988888889     0.697877777778     0.916666666667     0          
O        O      0.952555555556     0.809611111111     0.628116666667     0          
O        O      0.670488888889     0.789344444444     0.611816666667     0          
O        O      0.931422222222     0.735244444444     0.623566666667     0          
O        O      0.851322222222     0.815344444444     0.922616666667     0          
T        Si     0.966455555556     0.777944444444     0.632516666667     0          
O        O      0.857055555556     0.809611111111     0.628116666667     0          
O        O      0.877322222222     0.881144444444     0.611816666667     0          
O        O      0.931422222222     0.862844444444     0.623566666667     0          
O        O      0.851322222222     0.702644444444     0.922616666667     0          
T        Si     0.888722222222     0.855177777778     0.632516666667     0          
O        O      0.857055555556     0.714111111111     0.628116666667     0          
O        O      0.785522222222     0.996177777778     0.611816666667     0          
O        O      0.803822222222     0.735244444444     0.623566666667     0          
O        O      0.964022222222     0.815344444444     0.922616666667     0          
T        Si     0.811488888889     0.700211111111     0.632516666667     0          
O        O      0.877322222222     0.996177777778     0.611816666667     0          
O        O      0.888888888889     0.688511111111     0.666666666667     0          
T        Si     0.888722222222     0.700211111111     0.632516666667     0          
T        Si     0.808988888889     0.777777777778     0.916666666667     0          
O        O      0.670488888889     0.881144444444     0.611816666667     0          
O        O      0.978155555556     0.867044444444     0.666666666667     0          
T        Si     0.966455555556     0.855177777778     0.632516666667     0          
T        Si     0.888888888889     0.697877777778     0.916666666667     0          
O        O      0.785522222222     0.789344444444     0.611816666667     0          
O        O      0.799622222222     0.777777777778     0.666666666667     0          
T        Si     0.811488888889     0.777944444444     0.632516666667     0          
T        Si     0.968788888889     0.857677777778     0.916666666667     0          
O        O      0.773955555556     0.766211111111     0.721516666667     0          
T        Si     0.811322222222     0.777611111111     0.700816666667     0          
O        O      0.900455555556     0.674411111111     0.721516666667     0          
T        Si     0.889055555556     0.700377777778     0.700816666667     0          
O        O      0.992255555556     0.892711111111     0.721516666667     0          
T        Si     0.966288888889     0.855344444444     0.700816666667     0          
O        O      0.809611111111     0.952555555556     0.871883333333     0          
O        O      0.789344444444     0.670488888889     0.888183333333     0          
O        O      0.735244444444     0.931422222222     0.876433333333     0          
O        O      0.777777777778     0.978155555556     0.833333333333     0          
O        O      0.815344444444     0.851322222222     0.577383333333     0          
T        Si     0.777944444444     0.966455555556     0.867483333333     0          
T        Si     0.857677777778     0.888888888889     0.583333333333     0          
O        O      0.714111111111     0.857055555556     0.871883333333     0          
O        O      0.996177777778     0.785522222222     0.888183333333     0          
O        O      0.735244444444     0.803822222222     0.876433333333     0          
O        O      0.688511111111     0.799622222222     0.833333333333     0          
O        O      0.815344444444     0.964022222222     0.577383333333     0          
T        Si     0.700211111111     0.811488888889     0.867483333333     0          
T        Si     0.777777777778     0.968788888889     0.583333333333     0          
O        O      0.809611111111     0.857055555556     0.871883333333     0          
O        O      0.881144444444     0.877322222222     0.888183333333     0          
O        O      0.862844444444     0.931422222222     0.876433333333     0          
O        O      0.867044444444     0.888888888889     0.833333333333     0          
O        O      0.702644444444     0.851322222222     0.577383333333     0          
T        Si     0.855177777778     0.888722222222     0.867483333333     0          
T        Si     0.697877777778     0.808988888889     0.583333333333     0          
O        O      0.841444444444     0.920722222222     0.794783333333     0          
O        O      0.892711111111     0.900455555556     0.778483333333     0          
O        O      0.820311111111     0.846355555556     0.790233333333     0          
O        O      0.740211111111     0.926455555556     0.589283333333     0          
T        Si     0.855344444444     0.889055555556     0.799183333333     0          
O        O      0.745944444444     0.920722222222     0.794783333333     0          
O        O      0.766211111111     0.992255555556     0.778483333333     0          
O        O      0.820311111111     0.973955555556     0.790233333333     0          
O        O      0.740211111111     0.813755555556     0.589283333333     0          
T        Si     0.777611111111     0.966288888889     0.799183333333     0          
O        O      0.745944444444     0.825222222222     0.794783333333     0          
O        O      0.674411111111     0.773955555556     0.778483333333     0          
O        O      0.692711111111     0.846355555556     0.790233333333     0          
O        O      0.852911111111     0.926455555556     0.589283333333     0          
T        Si     0.700377777778     0.811322222222     0.799183333333     0          
O        O      0.766211111111     0.773955555556     0.778483333333     0          
O        O      0.777777777778     0.799622222222     0.833333333333     0          
T        Si     0.777611111111     0.811322222222     0.799183333333     0          
T        Si     0.697877777778     0.888888888889     0.583333333333     0          
O        O      0.892711111111     0.992255555556     0.778483333333     0          
O        O      0.867044444444     0.978155555556     0.833333333333     0          
T        Si     0.855344444444     0.966288888889     0.799183333333     0          
T        Si     0.777777777778     0.808988888889     0.583333333333     0          
O        O      0.674411111111     0.900455555556     0.778483333333     0          
O        O      0.688511111111     0.888888888889     0.833333333333     0          
T        Si     0.700377777778     0.889055555556     0.799183333333     0          
T        Si     0.857677777778     0.968788888889     0.583333333333     0          
O        O      0.996177777778     0.877322222222     0.888183333333     0          
T        Si     0.700211111111     0.888722222222     0.867483333333     0          
O        O      0.789344444444     0.785522222222     0.888183333333     0          
T        Si     0.777944444444     0.811488888889     0.867483333333     0          
O        O      0.881144444444     0.670488888889     0.888183333333     0          
T        Si     0.855177777778     0.966455555556     0.867483333333     0          


