data_zeolite

_audit_creation_method RASPA-1.0
_audit_creation_date 2020-12-25
_audit_author_name ''

_cell_length_a    26.328
_cell_length_b    43.168
_cell_length_c    26.285
_cell_angle_alpha 90
_cell_angle_beta  90
_cell_angle_gamma 90
_cell_volume      29873.6

_symmetry_cell_setting          orthorhombic
_symmetry_space_group_name_Hall 'P 1'
_symmetry_space_group_name_H-M  'P 1'
_symmetry_Int_Tables_number     1

_symmetry_equiv_pos_as_xyz 'x,y,z'

loop_
_atom_site_label
_atom_site_type_symbol
_atom_site_fract_x
_atom_site_fract_y
_atom_site_fract_z
_atom_site_charge
O        O      0.344300000000     0.050600000000     0.150000000000     0          
O        O      0.320550000000     0.000000000000     0.100000000000     0          
O        O      0.250000000000     0.030600000000     0.150000000000     0          
O        O      0.182250000000     0.100750000000     0.000000000000     0          
O        O      0.095750000000     0.099300000000     0.150000000000     0          
O        O      0.250000000000     0.133400000000     0.050000000000     0          
T        Si     0.308700000000     0.020250000000     0.150000000000     0          
T        Si     0.153950000000     0.087900000000     0.150000000000     0          
T        Si     0.307950000000     0.121400000000     0.050000000000     0          
O        O      0.155700000000     0.449400000000     0.050000000000     0          
O        O      0.179450000000     0.000000000000     0.000000000000     0          
O        O      0.250000000000     0.469400000000     0.050000000000     0          
O        O      0.317750000000     0.399250000000     0.100000000000     0          
O        O      0.404250000000     0.400700000000     0.050000000000     0          
O        O      0.250000000000     0.366600000000     0.150000000000     0          
T        Si     0.191300000000     0.479750000000     0.050000000000     0          
T        Si     0.346050000000     0.412100000000     0.050000000000     0          
T        Si     0.192050000000     0.378600000000     0.150000000000     0          
O        O      0.344300000000     0.449400000000     0.050000000000     0          
O        O      0.182250000000     0.399250000000     0.000000000000     0          
O        O      0.095750000000     0.400700000000     0.050000000000     0          
T        Si     0.308700000000     0.479750000000     0.050000000000     0          
T        Si     0.153950000000     0.412100000000     0.050000000000     0          
T        Si     0.307950000000     0.378600000000     0.150000000000     0          
O        O      0.155700000000     0.050600000000     0.150000000000     0          
O        O      0.317750000000     0.100750000000     0.100000000000     0          
O        O      0.404250000000     0.099300000000     0.150000000000     0          
T        Si     0.191300000000     0.020250000000     0.150000000000     0          
T        Si     0.346050000000     0.087900000000     0.150000000000     0          
T        Si     0.192050000000     0.121400000000     0.050000000000     0          
O        O      0.179450000000     0.000000000000     0.100000000000     0          
O        O      0.317750000000     0.399250000000     0.000000000000     0          
O        O      0.320550000000     0.000000000000     0.000000000000     0          
O        O      0.182250000000     0.100750000000     0.100000000000     0          
O        O      0.317750000000     0.100750000000     0.000000000000     0          
O        O      0.182250000000     0.399250000000     0.100000000000     0          
O        O      0.094300000000     0.300600000000     0.150000000000     0          
O        O      0.070550000000     0.250000000000     0.100000000000     0          
O        O      0.000000000000     0.280600000000     0.150000000000     0          
O        O      0.432250000000     0.350750000000     0.000000000000     0          
O        O      0.345750000000     0.349300000000     0.150000000000     0          
O        O      0.000000000000     0.383400000000     0.050000000000     0          
T        Si     0.058700000000     0.270250000000     0.150000000000     0          
T        Si     0.403950000000     0.337900000000     0.150000000000     0          
T        Si     0.057950000000     0.371400000000     0.050000000000     0          
O        O      0.405700000000     0.199400000000     0.050000000000     0          
O        O      0.429450000000     0.250000000000     0.000000000000     0          
O        O      0.000000000000     0.219400000000     0.050000000000     0          
O        O      0.067750000000     0.149250000000     0.100000000000     0          
O        O      0.154250000000     0.150700000000     0.050000000000     0          
O        O      0.000000000000     0.116600000000     0.150000000000     0          
T        Si     0.441300000000     0.229750000000     0.050000000000     0          
T        Si     0.096050000000     0.162100000000     0.050000000000     0          
T        Si     0.442050000000     0.128600000000     0.150000000000     0          
O        O      0.094300000000     0.199400000000     0.050000000000     0          
O        O      0.432250000000     0.149250000000     0.000000000000     0          
O        O      0.345750000000     0.150700000000     0.050000000000     0          
T        Si     0.058700000000     0.229750000000     0.050000000000     0          
T        Si     0.403950000000     0.162100000000     0.050000000000     0          
T        Si     0.057950000000     0.128600000000     0.150000000000     0          
O        O      0.405700000000     0.300600000000     0.150000000000     0          
O        O      0.067750000000     0.350750000000     0.100000000000     0          
O        O      0.154250000000     0.349300000000     0.150000000000     0          
T        Si     0.441300000000     0.270250000000     0.150000000000     0          
T        Si     0.096050000000     0.337900000000     0.150000000000     0          
T        Si     0.442050000000     0.371400000000     0.050000000000     0          
O        O      0.429450000000     0.250000000000     0.100000000000     0          
O        O      0.067750000000     0.149250000000     0.000000000000     0          
O        O      0.070550000000     0.250000000000     0.000000000000     0          
O        O      0.432250000000     0.350750000000     0.100000000000     0          
O        O      0.067750000000     0.350750000000     0.000000000000     0          
O        O      0.432250000000     0.149250000000     0.100000000000     0          
O        O      0.344300000000     0.050600000000     0.350000000000     0          
O        O      0.320550000000     0.000000000000     0.300000000000     0          
O        O      0.250000000000     0.030600000000     0.350000000000     0          
O        O      0.182250000000     0.100750000000     0.200000000000     0          
O        O      0.095750000000     0.099300000000     0.350000000000     0          
O        O      0.250000000000     0.133400000000     0.250000000000     0          
T        Si     0.308700000000     0.020250000000     0.350000000000     0          
T        Si     0.153950000000     0.087900000000     0.350000000000     0          
T        Si     0.307950000000     0.121400000000     0.250000000000     0          
O        O      0.155700000000     0.449400000000     0.250000000000     0          
O        O      0.179450000000     0.000000000000     0.200000000000     0          
O        O      0.250000000000     0.469400000000     0.250000000000     0          
O        O      0.317750000000     0.399250000000     0.300000000000     0          
O        O      0.404250000000     0.400700000000     0.250000000000     0          
O        O      0.250000000000     0.366600000000     0.350000000000     0          
T        Si     0.191300000000     0.479750000000     0.250000000000     0          
T        Si     0.346050000000     0.412100000000     0.250000000000     0          
T        Si     0.192050000000     0.378600000000     0.350000000000     0          
O        O      0.344300000000     0.449400000000     0.250000000000     0          
O        O      0.182250000000     0.399250000000     0.200000000000     0          
O        O      0.095750000000     0.400700000000     0.250000000000     0          
T        Si     0.308700000000     0.479750000000     0.250000000000     0          
T        Si     0.153950000000     0.412100000000     0.250000000000     0          
T        Si     0.307950000000     0.378600000000     0.350000000000     0          
O        O      0.155700000000     0.050600000000     0.350000000000     0          
O        O      0.317750000000     0.100750000000     0.300000000000     0          
O        O      0.404250000000     0.099300000000     0.350000000000     0          
T        Si     0.191300000000     0.020250000000     0.350000000000     0          
T        Si     0.346050000000     0.087900000000     0.350000000000     0          
T        Si     0.192050000000     0.121400000000     0.250000000000     0          
O        O      0.179450000000     0.000000000000     0.300000000000     0          
O        O      0.317750000000     0.399250000000     0.200000000000     0          
O        O      0.320550000000     0.000000000000     0.200000000000     0          
O        O      0.182250000000     0.100750000000     0.300000000000     0          
O        O      0.317750000000     0.100750000000     0.200000000000     0          
O        O      0.182250000000     0.399250000000     0.300000000000     0          
O        O      0.094300000000     0.300600000000     0.350000000000     0          
O        O      0.070550000000     0.250000000000     0.300000000000     0          
O        O      0.000000000000     0.280600000000     0.350000000000     0          
O        O      0.432250000000     0.350750000000     0.200000000000     0          
O        O      0.345750000000     0.349300000000     0.350000000000     0          
O        O      0.000000000000     0.383400000000     0.250000000000     0          
T        Si     0.058700000000     0.270250000000     0.350000000000     0          
T        Si     0.403950000000     0.337900000000     0.350000000000     0          
T        Si     0.057950000000     0.371400000000     0.250000000000     0          
O        O      0.405700000000     0.199400000000     0.250000000000     0          
O        O      0.429450000000     0.250000000000     0.200000000000     0          
O        O      0.000000000000     0.219400000000     0.250000000000     0          
O        O      0.067750000000     0.149250000000     0.300000000000     0          
O        O      0.154250000000     0.150700000000     0.250000000000     0          
O        O      0.000000000000     0.116600000000     0.350000000000     0          
T        Si     0.441300000000     0.229750000000     0.250000000000     0          
T        Si     0.096050000000     0.162100000000     0.250000000000     0          
T        Si     0.442050000000     0.128600000000     0.350000000000     0          
O        O      0.094300000000     0.199400000000     0.250000000000     0          
O        O      0.432250000000     0.149250000000     0.200000000000     0          
O        O      0.345750000000     0.150700000000     0.250000000000     0          
T        Si     0.058700000000     0.229750000000     0.250000000000     0          
T        Si     0.403950000000     0.162100000000     0.250000000000     0          
T        Si     0.057950000000     0.128600000000     0.350000000000     0          
O        O      0.405700000000     0.300600000000     0.350000000000     0          
O        O      0.067750000000     0.350750000000     0.300000000000     0          
O        O      0.154250000000     0.349300000000     0.350000000000     0          
T        Si     0.441300000000     0.270250000000     0.350000000000     0          
T        Si     0.096050000000     0.337900000000     0.350000000000     0          
T        Si     0.442050000000     0.371400000000     0.250000000000     0          
O        O      0.429450000000     0.250000000000     0.300000000000     0          
O        O      0.067750000000     0.149250000000     0.200000000000     0          
O        O      0.070550000000     0.250000000000     0.200000000000     0          
O        O      0.432250000000     0.350750000000     0.300000000000     0          
O        O      0.067750000000     0.350750000000     0.200000000000     0          
O        O      0.432250000000     0.149250000000     0.300000000000     0          
O        O      0.344300000000     0.050600000000     0.550000000000     0          
O        O      0.320550000000     0.000000000000     0.500000000000     0          
O        O      0.250000000000     0.030600000000     0.550000000000     0          
O        O      0.182250000000     0.100750000000     0.400000000000     0          
O        O      0.095750000000     0.099300000000     0.550000000000     0          
O        O      0.250000000000     0.133400000000     0.450000000000     0          
T        Si     0.308700000000     0.020250000000     0.550000000000     0          
T        Si     0.153950000000     0.087900000000     0.550000000000     0          
T        Si     0.307950000000     0.121400000000     0.450000000000     0          
O        O      0.155700000000     0.449400000000     0.450000000000     0          
O        O      0.179450000000     0.000000000000     0.400000000000     0          
O        O      0.250000000000     0.469400000000     0.450000000000     0          
O        O      0.317750000000     0.399250000000     0.500000000000     0          
O        O      0.404250000000     0.400700000000     0.450000000000     0          
O        O      0.250000000000     0.366600000000     0.550000000000     0          
T        Si     0.191300000000     0.479750000000     0.450000000000     0          
T        Si     0.346050000000     0.412100000000     0.450000000000     0          
T        Si     0.192050000000     0.378600000000     0.550000000000     0          
O        O      0.344300000000     0.449400000000     0.450000000000     0          
O        O      0.182250000000     0.399250000000     0.400000000000     0          
O        O      0.095750000000     0.400700000000     0.450000000000     0          
T        Si     0.308700000000     0.479750000000     0.450000000000     0          
T        Si     0.153950000000     0.412100000000     0.450000000000     0          
T        Si     0.307950000000     0.378600000000     0.550000000000     0          
O        O      0.155700000000     0.050600000000     0.550000000000     0          
O        O      0.317750000000     0.100750000000     0.500000000000     0          
O        O      0.404250000000     0.099300000000     0.550000000000     0          
T        Si     0.191300000000     0.020250000000     0.550000000000     0          
T        Si     0.346050000000     0.087900000000     0.550000000000     0          
T        Si     0.192050000000     0.121400000000     0.450000000000     0          
O        O      0.179450000000     0.000000000000     0.500000000000     0          
O        O      0.317750000000     0.399250000000     0.400000000000     0          
O        O      0.320550000000     0.000000000000     0.400000000000     0          
O        O      0.182250000000     0.100750000000     0.500000000000     0          
O        O      0.317750000000     0.100750000000     0.400000000000     0          
O        O      0.182250000000     0.399250000000     0.500000000000     0          
O        O      0.094300000000     0.300600000000     0.550000000000     0          
O        O      0.070550000000     0.250000000000     0.500000000000     0          
O        O      0.000000000000     0.280600000000     0.550000000000     0          
O        O      0.432250000000     0.350750000000     0.400000000000     0          
O        O      0.345750000000     0.349300000000     0.550000000000     0          
O        O      0.000000000000     0.383400000000     0.450000000000     0          
T        Si     0.058700000000     0.270250000000     0.550000000000     0          
T        Si     0.403950000000     0.337900000000     0.550000000000     0          
T        Si     0.057950000000     0.371400000000     0.450000000000     0          
O        O      0.405700000000     0.199400000000     0.450000000000     0          
O        O      0.429450000000     0.250000000000     0.400000000000     0          
O        O      0.000000000000     0.219400000000     0.450000000000     0          
O        O      0.067750000000     0.149250000000     0.500000000000     0          
O        O      0.154250000000     0.150700000000     0.450000000000     0          
O        O      0.000000000000     0.116600000000     0.550000000000     0          
T        Si     0.441300000000     0.229750000000     0.450000000000     0          
T        Si     0.096050000000     0.162100000000     0.450000000000     0          
T        Si     0.442050000000     0.128600000000     0.550000000000     0          
O        O      0.094300000000     0.199400000000     0.450000000000     0          
O        O      0.432250000000     0.149250000000     0.400000000000     0          
O        O      0.345750000000     0.150700000000     0.450000000000     0          
T        Si     0.058700000000     0.229750000000     0.450000000000     0          
T        Si     0.403950000000     0.162100000000     0.450000000000     0          
T        Si     0.057950000000     0.128600000000     0.550000000000     0          
O        O      0.405700000000     0.300600000000     0.550000000000     0          
O        O      0.067750000000     0.350750000000     0.500000000000     0          
O        O      0.154250000000     0.349300000000     0.550000000000     0          
T        Si     0.441300000000     0.270250000000     0.550000000000     0          
T        Si     0.096050000000     0.337900000000     0.550000000000     0          
T        Si     0.442050000000     0.371400000000     0.450000000000     0          
O        O      0.429450000000     0.250000000000     0.500000000000     0          
O        O      0.067750000000     0.149250000000     0.400000000000     0          
O        O      0.070550000000     0.250000000000     0.400000000000     0          
O        O      0.432250000000     0.350750000000     0.500000000000     0          
O        O      0.067750000000     0.350750000000     0.400000000000     0          
O        O      0.432250000000     0.149250000000     0.500000000000     0          
O        O      0.344300000000     0.050600000000     0.750000000000     0          
O        O      0.320550000000     0.000000000000     0.700000000000     0          
O        O      0.250000000000     0.030600000000     0.750000000000     0          
O        O      0.182250000000     0.100750000000     0.600000000000     0          
O        O      0.095750000000     0.099300000000     0.750000000000     0          
O        O      0.250000000000     0.133400000000     0.650000000000     0          
T        Si     0.308700000000     0.020250000000     0.750000000000     0          
T        Si     0.153950000000     0.087900000000     0.750000000000     0          
T        Si     0.307950000000     0.121400000000     0.650000000000     0          
O        O      0.155700000000     0.449400000000     0.650000000000     0          
O        O      0.179450000000     0.000000000000     0.600000000000     0          
O        O      0.250000000000     0.469400000000     0.650000000000     0          
O        O      0.317750000000     0.399250000000     0.700000000000     0          
O        O      0.404250000000     0.400700000000     0.650000000000     0          
O        O      0.250000000000     0.366600000000     0.750000000000     0          
T        Si     0.191300000000     0.479750000000     0.650000000000     0          
T        Si     0.346050000000     0.412100000000     0.650000000000     0          
T        Si     0.192050000000     0.378600000000     0.750000000000     0          
O        O      0.344300000000     0.449400000000     0.650000000000     0          
O        O      0.182250000000     0.399250000000     0.600000000000     0          
O        O      0.095750000000     0.400700000000     0.650000000000     0          
T        Si     0.308700000000     0.479750000000     0.650000000000     0          
T        Si     0.153950000000     0.412100000000     0.650000000000     0          
T        Si     0.307950000000     0.378600000000     0.750000000000     0          
O        O      0.155700000000     0.050600000000     0.750000000000     0          
O        O      0.317750000000     0.100750000000     0.700000000000     0          
O        O      0.404250000000     0.099300000000     0.750000000000     0          
T        Si     0.191300000000     0.020250000000     0.750000000000     0          
T        Si     0.346050000000     0.087900000000     0.750000000000     0          
T        Si     0.192050000000     0.121400000000     0.650000000000     0          
O        O      0.179450000000     0.000000000000     0.700000000000     0          
O        O      0.317750000000     0.399250000000     0.600000000000     0          
O        O      0.320550000000     0.000000000000     0.600000000000     0          
O        O      0.182250000000     0.100750000000     0.700000000000     0          
O        O      0.317750000000     0.100750000000     0.600000000000     0          
O        O      0.182250000000     0.399250000000     0.700000000000     0          
O        O      0.094300000000     0.300600000000     0.750000000000     0          
O        O      0.070550000000     0.250000000000     0.700000000000     0          
O        O      0.000000000000     0.280600000000     0.750000000000     0          
O        O      0.432250000000     0.350750000000     0.600000000000     0          
O        O      0.345750000000     0.349300000000     0.750000000000     0          
O        O      0.000000000000     0.383400000000     0.650000000000     0          
T        Si     0.058700000000     0.270250000000     0.750000000000     0          
T        Si     0.403950000000     0.337900000000     0.750000000000     0          
T        Si     0.057950000000     0.371400000000     0.650000000000     0          
O        O      0.405700000000     0.199400000000     0.650000000000     0          
O        O      0.429450000000     0.250000000000     0.600000000000     0          
O        O      0.000000000000     0.219400000000     0.650000000000     0          
O        O      0.067750000000     0.149250000000     0.700000000000     0          
O        O      0.154250000000     0.150700000000     0.650000000000     0          
O        O      0.000000000000     0.116600000000     0.750000000000     0          
T        Si     0.441300000000     0.229750000000     0.650000000000     0          
T        Si     0.096050000000     0.162100000000     0.650000000000     0          
T        Si     0.442050000000     0.128600000000     0.750000000000     0          
O        O      0.094300000000     0.199400000000     0.650000000000     0          
O        O      0.432250000000     0.149250000000     0.600000000000     0          
O        O      0.345750000000     0.150700000000     0.650000000000     0          
T        Si     0.058700000000     0.229750000000     0.650000000000     0          
T        Si     0.403950000000     0.162100000000     0.650000000000     0          
T        Si     0.057950000000     0.128600000000     0.750000000000     0          
O        O      0.405700000000     0.300600000000     0.750000000000     0          
O        O      0.067750000000     0.350750000000     0.700000000000     0          
O        O      0.154250000000     0.349300000000     0.750000000000     0          
T        Si     0.441300000000     0.270250000000     0.750000000000     0          
T        Si     0.096050000000     0.337900000000     0.750000000000     0          
T        Si     0.442050000000     0.371400000000     0.650000000000     0          
O        O      0.429450000000     0.250000000000     0.700000000000     0          
O        O      0.067750000000     0.149250000000     0.600000000000     0          
O        O      0.070550000000     0.250000000000     0.600000000000     0          
O        O      0.432250000000     0.350750000000     0.700000000000     0          
O        O      0.067750000000     0.350750000000     0.600000000000     0          
O        O      0.432250000000     0.149250000000     0.700000000000     0          
O        O      0.344300000000     0.050600000000     0.950000000000     0          
O        O      0.320550000000     0.000000000000     0.900000000000     0          
O        O      0.250000000000     0.030600000000     0.950000000000     0          
O        O      0.182250000000     0.100750000000     0.800000000000     0          
O        O      0.095750000000     0.099300000000     0.950000000000     0          
O        O      0.250000000000     0.133400000000     0.850000000000     0          
T        Si     0.308700000000     0.020250000000     0.950000000000     0          
T        Si     0.153950000000     0.087900000000     0.950000000000     0          
T        Si     0.307950000000     0.121400000000     0.850000000000     0          
O        O      0.155700000000     0.449400000000     0.850000000000     0          
O        O      0.179450000000     0.000000000000     0.800000000000     0          
O        O      0.250000000000     0.469400000000     0.850000000000     0          
O        O      0.317750000000     0.399250000000     0.900000000000     0          
O        O      0.404250000000     0.400700000000     0.850000000000     0          
O        O      0.250000000000     0.366600000000     0.950000000000     0          
T        Si     0.191300000000     0.479750000000     0.850000000000     0          
T        Si     0.346050000000     0.412100000000     0.850000000000     0          
T        Si     0.192050000000     0.378600000000     0.950000000000     0          
O        O      0.344300000000     0.449400000000     0.850000000000     0          
O        O      0.182250000000     0.399250000000     0.800000000000     0          
O        O      0.095750000000     0.400700000000     0.850000000000     0          
T        Si     0.308700000000     0.479750000000     0.850000000000     0          
T        Si     0.153950000000     0.412100000000     0.850000000000     0          
T        Si     0.307950000000     0.378600000000     0.950000000000     0          
O        O      0.155700000000     0.050600000000     0.950000000000     0          
O        O      0.317750000000     0.100750000000     0.900000000000     0          
O        O      0.404250000000     0.099300000000     0.950000000000     0          
T        Si     0.191300000000     0.020250000000     0.950000000000     0          
T        Si     0.346050000000     0.087900000000     0.950000000000     0          
T        Si     0.192050000000     0.121400000000     0.850000000000     0          
O        O      0.179450000000     0.000000000000     0.900000000000     0          
O        O      0.317750000000     0.399250000000     0.800000000000     0          
O        O      0.320550000000     0.000000000000     0.800000000000     0          
O        O      0.182250000000     0.100750000000     0.900000000000     0          
O        O      0.317750000000     0.100750000000     0.800000000000     0          
O        O      0.182250000000     0.399250000000     0.900000000000     0          
O        O      0.094300000000     0.300600000000     0.950000000000     0          
O        O      0.070550000000     0.250000000000     0.900000000000     0          
O        O      0.000000000000     0.280600000000     0.950000000000     0          
O        O      0.432250000000     0.350750000000     0.800000000000     0          
O        O      0.345750000000     0.349300000000     0.950000000000     0          
O        O      0.000000000000     0.383400000000     0.850000000000     0          
T        Si     0.058700000000     0.270250000000     0.950000000000     0          
T        Si     0.403950000000     0.337900000000     0.950000000000     0          
T        Si     0.057950000000     0.371400000000     0.850000000000     0          
O        O      0.405700000000     0.199400000000     0.850000000000     0          
O        O      0.429450000000     0.250000000000     0.800000000000     0          
O        O      0.000000000000     0.219400000000     0.850000000000     0          
O        O      0.067750000000     0.149250000000     0.900000000000     0          
O        O      0.154250000000     0.150700000000     0.850000000000     0          
O        O      0.000000000000     0.116600000000     0.950000000000     0          
T        Si     0.441300000000     0.229750000000     0.850000000000     0          
T        Si     0.096050000000     0.162100000000     0.850000000000     0          
T        Si     0.442050000000     0.128600000000     0.950000000000     0          
O        O      0.094300000000     0.199400000000     0.850000000000     0          
O        O      0.432250000000     0.149250000000     0.800000000000     0          
O        O      0.345750000000     0.150700000000     0.850000000000     0          
T        Si     0.058700000000     0.229750000000     0.850000000000     0          
T        Si     0.403950000000     0.162100000000     0.850000000000     0          
T        Si     0.057950000000     0.128600000000     0.950000000000     0          
O        O      0.405700000000     0.300600000000     0.950000000000     0          
O        O      0.067750000000     0.350750000000     0.900000000000     0          
O        O      0.154250000000     0.349300000000     0.950000000000     0          
T        Si     0.441300000000     0.270250000000     0.950000000000     0          
T        Si     0.096050000000     0.337900000000     0.950000000000     0          
T        Si     0.442050000000     0.371400000000     0.850000000000     0          
O        O      0.429450000000     0.250000000000     0.900000000000     0          
O        O      0.067750000000     0.149250000000     0.800000000000     0          
O        O      0.070550000000     0.250000000000     0.800000000000     0          
O        O      0.432250000000     0.350750000000     0.900000000000     0          
O        O      0.067750000000     0.350750000000     0.800000000000     0          
O        O      0.432250000000     0.149250000000     0.900000000000     0          
O        O      0.344300000000     0.550600000000     0.150000000000     0          
O        O      0.320550000000     0.500000000000     0.100000000000     0          
O        O      0.250000000000     0.530600000000     0.150000000000     0          
O        O      0.182250000000     0.600750000000     0.000000000000     0          
O        O      0.095750000000     0.599300000000     0.150000000000     0          
O        O      0.250000000000     0.633400000000     0.050000000000     0          
T        Si     0.308700000000     0.520250000000     0.150000000000     0          
T        Si     0.153950000000     0.587900000000     0.150000000000     0          
T        Si     0.307950000000     0.621400000000     0.050000000000     0          
O        O      0.155700000000     0.949400000000     0.050000000000     0          
O        O      0.179450000000     0.500000000000     0.000000000000     0          
O        O      0.250000000000     0.969400000000     0.050000000000     0          
O        O      0.317750000000     0.899250000000     0.100000000000     0          
O        O      0.404250000000     0.900700000000     0.050000000000     0          
O        O      0.250000000000     0.866600000000     0.150000000000     0          
T        Si     0.191300000000     0.979750000000     0.050000000000     0          
T        Si     0.346050000000     0.912100000000     0.050000000000     0          
T        Si     0.192050000000     0.878600000000     0.150000000000     0          
O        O      0.344300000000     0.949400000000     0.050000000000     0          
O        O      0.182250000000     0.899250000000     0.000000000000     0          
O        O      0.095750000000     0.900700000000     0.050000000000     0          
T        Si     0.308700000000     0.979750000000     0.050000000000     0          
T        Si     0.153950000000     0.912100000000     0.050000000000     0          
T        Si     0.307950000000     0.878600000000     0.150000000000     0          
O        O      0.155700000000     0.550600000000     0.150000000000     0          
O        O      0.317750000000     0.600750000000     0.100000000000     0          
O        O      0.404250000000     0.599300000000     0.150000000000     0          
T        Si     0.191300000000     0.520250000000     0.150000000000     0          
T        Si     0.346050000000     0.587900000000     0.150000000000     0          
T        Si     0.192050000000     0.621400000000     0.050000000000     0          
O        O      0.179450000000     0.500000000000     0.100000000000     0          
O        O      0.317750000000     0.899250000000     0.000000000000     0          
O        O      0.320550000000     0.500000000000     0.000000000000     0          
O        O      0.182250000000     0.600750000000     0.100000000000     0          
O        O      0.317750000000     0.600750000000     0.000000000000     0          
O        O      0.182250000000     0.899250000000     0.100000000000     0          
O        O      0.094300000000     0.800600000000     0.150000000000     0          
O        O      0.070550000000     0.750000000000     0.100000000000     0          
O        O      0.000000000000     0.780600000000     0.150000000000     0          
O        O      0.432250000000     0.850750000000     0.000000000000     0          
O        O      0.345750000000     0.849300000000     0.150000000000     0          
O        O      0.000000000000     0.883400000000     0.050000000000     0          
T        Si     0.058700000000     0.770250000000     0.150000000000     0          
T        Si     0.403950000000     0.837900000000     0.150000000000     0          
T        Si     0.057950000000     0.871400000000     0.050000000000     0          
O        O      0.405700000000     0.699400000000     0.050000000000     0          
O        O      0.429450000000     0.750000000000     0.000000000000     0          
O        O      0.000000000000     0.719400000000     0.050000000000     0          
O        O      0.067750000000     0.649250000000     0.100000000000     0          
O        O      0.154250000000     0.650700000000     0.050000000000     0          
O        O      0.000000000000     0.616600000000     0.150000000000     0          
T        Si     0.441300000000     0.729750000000     0.050000000000     0          
T        Si     0.096050000000     0.662100000000     0.050000000000     0          
T        Si     0.442050000000     0.628600000000     0.150000000000     0          
O        O      0.094300000000     0.699400000000     0.050000000000     0          
O        O      0.432250000000     0.649250000000     0.000000000000     0          
O        O      0.345750000000     0.650700000000     0.050000000000     0          
T        Si     0.058700000000     0.729750000000     0.050000000000     0          
T        Si     0.403950000000     0.662100000000     0.050000000000     0          
T        Si     0.057950000000     0.628600000000     0.150000000000     0          
O        O      0.405700000000     0.800600000000     0.150000000000     0          
O        O      0.067750000000     0.850750000000     0.100000000000     0          
O        O      0.154250000000     0.849300000000     0.150000000000     0          
T        Si     0.441300000000     0.770250000000     0.150000000000     0          
T        Si     0.096050000000     0.837900000000     0.150000000000     0          
T        Si     0.442050000000     0.871400000000     0.050000000000     0          
O        O      0.429450000000     0.750000000000     0.100000000000     0          
O        O      0.067750000000     0.649250000000     0.000000000000     0          
O        O      0.070550000000     0.750000000000     0.000000000000     0          
O        O      0.432250000000     0.850750000000     0.100000000000     0          
O        O      0.067750000000     0.850750000000     0.000000000000     0          
O        O      0.432250000000     0.649250000000     0.100000000000     0          
O        O      0.344300000000     0.550600000000     0.350000000000     0          
O        O      0.320550000000     0.500000000000     0.300000000000     0          
O        O      0.250000000000     0.530600000000     0.350000000000     0          
O        O      0.182250000000     0.600750000000     0.200000000000     0          
O        O      0.095750000000     0.599300000000     0.350000000000     0          
O        O      0.250000000000     0.633400000000     0.250000000000     0          
T        Si     0.308700000000     0.520250000000     0.350000000000     0          
T        Si     0.153950000000     0.587900000000     0.350000000000     0          
T        Si     0.307950000000     0.621400000000     0.250000000000     0          
O        O      0.155700000000     0.949400000000     0.250000000000     0          
O        O      0.179450000000     0.500000000000     0.200000000000     0          
O        O      0.250000000000     0.969400000000     0.250000000000     0          
O        O      0.317750000000     0.899250000000     0.300000000000     0          
O        O      0.404250000000     0.900700000000     0.250000000000     0          
O        O      0.250000000000     0.866600000000     0.350000000000     0          
T        Si     0.191300000000     0.979750000000     0.250000000000     0          
T        Si     0.346050000000     0.912100000000     0.250000000000     0          
T        Si     0.192050000000     0.878600000000     0.350000000000     0          
O        O      0.344300000000     0.949400000000     0.250000000000     0          
O        O      0.182250000000     0.899250000000     0.200000000000     0          
O        O      0.095750000000     0.900700000000     0.250000000000     0          
T        Si     0.308700000000     0.979750000000     0.250000000000     0          
T        Si     0.153950000000     0.912100000000     0.250000000000     0          
T        Si     0.307950000000     0.878600000000     0.350000000000     0          
O        O      0.155700000000     0.550600000000     0.350000000000     0          
O        O      0.317750000000     0.600750000000     0.300000000000     0          
O        O      0.404250000000     0.599300000000     0.350000000000     0          
T        Si     0.191300000000     0.520250000000     0.350000000000     0          
T        Si     0.346050000000     0.587900000000     0.350000000000     0          
T        Si     0.192050000000     0.621400000000     0.250000000000     0          
O        O      0.179450000000     0.500000000000     0.300000000000     0          
O        O      0.317750000000     0.899250000000     0.200000000000     0          
O        O      0.320550000000     0.500000000000     0.200000000000     0          
O        O      0.182250000000     0.600750000000     0.300000000000     0          
O        O      0.317750000000     0.600750000000     0.200000000000     0          
O        O      0.182250000000     0.899250000000     0.300000000000     0          
O        O      0.094300000000     0.800600000000     0.350000000000     0          
O        O      0.070550000000     0.750000000000     0.300000000000     0          
O        O      0.000000000000     0.780600000000     0.350000000000     0          
O        O      0.432250000000     0.850750000000     0.200000000000     0          
O        O      0.345750000000     0.849300000000     0.350000000000     0          
O        O      0.000000000000     0.883400000000     0.250000000000     0          
T        Si     0.058700000000     0.770250000000     0.350000000000     0          
T        Si     0.403950000000     0.837900000000     0.350000000000     0          
T        Si     0.057950000000     0.871400000000     0.250000000000     0          
O        O      0.405700000000     0.699400000000     0.250000000000     0          
O        O      0.429450000000     0.750000000000     0.200000000000     0          
O        O      0.000000000000     0.719400000000     0.250000000000     0          
O        O      0.067750000000     0.649250000000     0.300000000000     0          
O        O      0.154250000000     0.650700000000     0.250000000000     0          
O        O      0.000000000000     0.616600000000     0.350000000000     0          
T        Si     0.441300000000     0.729750000000     0.250000000000     0          
T        Si     0.096050000000     0.662100000000     0.250000000000     0          
T        Si     0.442050000000     0.628600000000     0.350000000000     0          
O        O      0.094300000000     0.699400000000     0.250000000000     0          
O        O      0.432250000000     0.649250000000     0.200000000000     0          
O        O      0.345750000000     0.650700000000     0.250000000000     0          
T        Si     0.058700000000     0.729750000000     0.250000000000     0          
T        Si     0.403950000000     0.662100000000     0.250000000000     0          
T        Si     0.057950000000     0.628600000000     0.350000000000     0          
O        O      0.405700000000     0.800600000000     0.350000000000     0          
O        O      0.067750000000     0.850750000000     0.300000000000     0          
O        O      0.154250000000     0.849300000000     0.350000000000     0          
T        Si     0.441300000000     0.770250000000     0.350000000000     0          
T        Si     0.096050000000     0.837900000000     0.350000000000     0          
T        Si     0.442050000000     0.871400000000     0.250000000000     0          
O        O      0.429450000000     0.750000000000     0.300000000000     0          
O        O      0.067750000000     0.649250000000     0.200000000000     0          
O        O      0.070550000000     0.750000000000     0.200000000000     0          
O        O      0.432250000000     0.850750000000     0.300000000000     0          
O        O      0.067750000000     0.850750000000     0.200000000000     0          
O        O      0.432250000000     0.649250000000     0.300000000000     0          
O        O      0.344300000000     0.550600000000     0.550000000000     0          
O        O      0.320550000000     0.500000000000     0.500000000000     0          
O        O      0.250000000000     0.530600000000     0.550000000000     0          
O        O      0.182250000000     0.600750000000     0.400000000000     0          
O        O      0.095750000000     0.599300000000     0.550000000000     0          
O        O      0.250000000000     0.633400000000     0.450000000000     0          
T        Si     0.308700000000     0.520250000000     0.550000000000     0          
T        Si     0.153950000000     0.587900000000     0.550000000000     0          
T        Si     0.307950000000     0.621400000000     0.450000000000     0          
O        O      0.155700000000     0.949400000000     0.450000000000     0          
O        O      0.179450000000     0.500000000000     0.400000000000     0          
O        O      0.250000000000     0.969400000000     0.450000000000     0          
O        O      0.317750000000     0.899250000000     0.500000000000     0          
O        O      0.404250000000     0.900700000000     0.450000000000     0          
O        O      0.250000000000     0.866600000000     0.550000000000     0          
T        Si     0.191300000000     0.979750000000     0.450000000000     0          
T        Si     0.346050000000     0.912100000000     0.450000000000     0          
T        Si     0.192050000000     0.878600000000     0.550000000000     0          
O        O      0.344300000000     0.949400000000     0.450000000000     0          
O        O      0.182250000000     0.899250000000     0.400000000000     0          
O        O      0.095750000000     0.900700000000     0.450000000000     0          
T        Si     0.308700000000     0.979750000000     0.450000000000     0          
T        Si     0.153950000000     0.912100000000     0.450000000000     0          
T        Si     0.307950000000     0.878600000000     0.550000000000     0          
O        O      0.155700000000     0.550600000000     0.550000000000     0          
O        O      0.317750000000     0.600750000000     0.500000000000     0          
O        O      0.404250000000     0.599300000000     0.550000000000     0          
T        Si     0.191300000000     0.520250000000     0.550000000000     0          
T        Si     0.346050000000     0.587900000000     0.550000000000     0          
T        Si     0.192050000000     0.621400000000     0.450000000000     0          
O        O      0.179450000000     0.500000000000     0.500000000000     0          
O        O      0.317750000000     0.899250000000     0.400000000000     0          
O        O      0.320550000000     0.500000000000     0.400000000000     0          
O        O      0.182250000000     0.600750000000     0.500000000000     0          
O        O      0.317750000000     0.600750000000     0.400000000000     0          
O        O      0.182250000000     0.899250000000     0.500000000000     0          
O        O      0.094300000000     0.800600000000     0.550000000000     0          
O        O      0.070550000000     0.750000000000     0.500000000000     0          
O        O      0.000000000000     0.780600000000     0.550000000000     0          
O        O      0.432250000000     0.850750000000     0.400000000000     0          
O        O      0.345750000000     0.849300000000     0.550000000000     0          
O        O      0.000000000000     0.883400000000     0.450000000000     0          
T        Si     0.058700000000     0.770250000000     0.550000000000     0          
T        Si     0.403950000000     0.837900000000     0.550000000000     0          
T        Si     0.057950000000     0.871400000000     0.450000000000     0          
O        O      0.405700000000     0.699400000000     0.450000000000     0          
O        O      0.429450000000     0.750000000000     0.400000000000     0          
O        O      0.000000000000     0.719400000000     0.450000000000     0          
O        O      0.067750000000     0.649250000000     0.500000000000     0          
O        O      0.154250000000     0.650700000000     0.450000000000     0          
O        O      0.000000000000     0.616600000000     0.550000000000     0          
T        Si     0.441300000000     0.729750000000     0.450000000000     0          
T        Si     0.096050000000     0.662100000000     0.450000000000     0          
T        Si     0.442050000000     0.628600000000     0.550000000000     0          
O        O      0.094300000000     0.699400000000     0.450000000000     0          
O        O      0.432250000000     0.649250000000     0.400000000000     0          
O        O      0.345750000000     0.650700000000     0.450000000000     0          
T        Si     0.058700000000     0.729750000000     0.450000000000     0          
T        Si     0.403950000000     0.662100000000     0.450000000000     0          
T        Si     0.057950000000     0.628600000000     0.550000000000     0          
O        O      0.405700000000     0.800600000000     0.550000000000     0          
O        O      0.067750000000     0.850750000000     0.500000000000     0          
O        O      0.154250000000     0.849300000000     0.550000000000     0          
T        Si     0.441300000000     0.770250000000     0.550000000000     0          
T        Si     0.096050000000     0.837900000000     0.550000000000     0          
T        Si     0.442050000000     0.871400000000     0.450000000000     0          
O        O      0.429450000000     0.750000000000     0.500000000000     0          
O        O      0.067750000000     0.649250000000     0.400000000000     0          
O        O      0.070550000000     0.750000000000     0.400000000000     0          
O        O      0.432250000000     0.850750000000     0.500000000000     0          
O        O      0.067750000000     0.850750000000     0.400000000000     0          
O        O      0.432250000000     0.649250000000     0.500000000000     0          
O        O      0.344300000000     0.550600000000     0.750000000000     0          
O        O      0.320550000000     0.500000000000     0.700000000000     0          
O        O      0.250000000000     0.530600000000     0.750000000000     0          
O        O      0.182250000000     0.600750000000     0.600000000000     0          
O        O      0.095750000000     0.599300000000     0.750000000000     0          
O        O      0.250000000000     0.633400000000     0.650000000000     0          
T        Si     0.308700000000     0.520250000000     0.750000000000     0          
T        Si     0.153950000000     0.587900000000     0.750000000000     0          
T        Si     0.307950000000     0.621400000000     0.650000000000     0          
O        O      0.155700000000     0.949400000000     0.650000000000     0          
O        O      0.179450000000     0.500000000000     0.600000000000     0          
O        O      0.250000000000     0.969400000000     0.650000000000     0          
O        O      0.317750000000     0.899250000000     0.700000000000     0          
O        O      0.404250000000     0.900700000000     0.650000000000     0          
O        O      0.250000000000     0.866600000000     0.750000000000     0          
T        Si     0.191300000000     0.979750000000     0.650000000000     0          
T        Si     0.346050000000     0.912100000000     0.650000000000     0          
T        Si     0.192050000000     0.878600000000     0.750000000000     0          
O        O      0.344300000000     0.949400000000     0.650000000000     0          
O        O      0.182250000000     0.899250000000     0.600000000000     0          
O        O      0.095750000000     0.900700000000     0.650000000000     0          
T        Si     0.308700000000     0.979750000000     0.650000000000     0          
T        Si     0.153950000000     0.912100000000     0.650000000000     0          
T        Si     0.307950000000     0.878600000000     0.750000000000     0          
O        O      0.155700000000     0.550600000000     0.750000000000     0          
O        O      0.317750000000     0.600750000000     0.700000000000     0          
O        O      0.404250000000     0.599300000000     0.750000000000     0          
T        Si     0.191300000000     0.520250000000     0.750000000000     0          
T        Si     0.346050000000     0.587900000000     0.750000000000     0          
T        Si     0.192050000000     0.621400000000     0.650000000000     0          
O        O      0.179450000000     0.500000000000     0.700000000000     0          
O        O      0.317750000000     0.899250000000     0.600000000000     0          
O        O      0.320550000000     0.500000000000     0.600000000000     0          
O        O      0.182250000000     0.600750000000     0.700000000000     0          
O        O      0.317750000000     0.600750000000     0.600000000000     0          
O        O      0.182250000000     0.899250000000     0.700000000000     0          
O        O      0.094300000000     0.800600000000     0.750000000000     0          
O        O      0.070550000000     0.750000000000     0.700000000000     0          
O        O      0.000000000000     0.780600000000     0.750000000000     0          
O        O      0.432250000000     0.850750000000     0.600000000000     0          
O        O      0.345750000000     0.849300000000     0.750000000000     0          
O        O      0.000000000000     0.883400000000     0.650000000000     0          
T        Si     0.058700000000     0.770250000000     0.750000000000     0          
T        Si     0.403950000000     0.837900000000     0.750000000000     0          
T        Si     0.057950000000     0.871400000000     0.650000000000     0          
O        O      0.405700000000     0.699400000000     0.650000000000     0          
O        O      0.429450000000     0.750000000000     0.600000000000     0          
O        O      0.000000000000     0.719400000000     0.650000000000     0          
O        O      0.067750000000     0.649250000000     0.700000000000     0          
O        O      0.154250000000     0.650700000000     0.650000000000     0          
O        O      0.000000000000     0.616600000000     0.750000000000     0          
T        Si     0.441300000000     0.729750000000     0.650000000000     0          
T        Si     0.096050000000     0.662100000000     0.650000000000     0          
T        Si     0.442050000000     0.628600000000     0.750000000000     0          
O        O      0.094300000000     0.699400000000     0.650000000000     0          
O        O      0.432250000000     0.649250000000     0.600000000000     0          
O        O      0.345750000000     0.650700000000     0.650000000000     0          
T        Si     0.058700000000     0.729750000000     0.650000000000     0          
T        Si     0.403950000000     0.662100000000     0.650000000000     0          
T        Si     0.057950000000     0.628600000000     0.750000000000     0          
O        O      0.405700000000     0.800600000000     0.750000000000     0          
O        O      0.067750000000     0.850750000000     0.700000000000     0          
O        O      0.154250000000     0.849300000000     0.750000000000     0          
T        Si     0.441300000000     0.770250000000     0.750000000000     0          
T        Si     0.096050000000     0.837900000000     0.750000000000     0          
T        Si     0.442050000000     0.871400000000     0.650000000000     0          
O        O      0.429450000000     0.750000000000     0.700000000000     0          
O        O      0.067750000000     0.649250000000     0.600000000000     0          
O        O      0.070550000000     0.750000000000     0.600000000000     0          
O        O      0.432250000000     0.850750000000     0.700000000000     0          
O        O      0.067750000000     0.850750000000     0.600000000000     0          
O        O      0.432250000000     0.649250000000     0.700000000000     0          
O        O      0.344300000000     0.550600000000     0.950000000000     0          
O        O      0.320550000000     0.500000000000     0.900000000000     0          
O        O      0.250000000000     0.530600000000     0.950000000000     0          
O        O      0.182250000000     0.600750000000     0.800000000000     0          
O        O      0.095750000000     0.599300000000     0.950000000000     0          
O        O      0.250000000000     0.633400000000     0.850000000000     0          
T        Si     0.308700000000     0.520250000000     0.950000000000     0          
T        Si     0.153950000000     0.587900000000     0.950000000000     0          
T        Si     0.307950000000     0.621400000000     0.850000000000     0          
O        O      0.155700000000     0.949400000000     0.850000000000     0          
O        O      0.179450000000     0.500000000000     0.800000000000     0          
O        O      0.250000000000     0.969400000000     0.850000000000     0          
O        O      0.317750000000     0.899250000000     0.900000000000     0          
O        O      0.404250000000     0.900700000000     0.850000000000     0          
O        O      0.250000000000     0.866600000000     0.950000000000     0          
T        Si     0.191300000000     0.979750000000     0.850000000000     0          
T        Si     0.346050000000     0.912100000000     0.850000000000     0          
T        Si     0.192050000000     0.878600000000     0.950000000000     0          
O        O      0.344300000000     0.949400000000     0.850000000000     0          
O        O      0.182250000000     0.899250000000     0.800000000000     0          
O        O      0.095750000000     0.900700000000     0.850000000000     0          
T        Si     0.308700000000     0.979750000000     0.850000000000     0          
T        Si     0.153950000000     0.912100000000     0.850000000000     0          
T        Si     0.307950000000     0.878600000000     0.950000000000     0          
O        O      0.155700000000     0.550600000000     0.950000000000     0          
O        O      0.317750000000     0.600750000000     0.900000000000     0          
O        O      0.404250000000     0.599300000000     0.950000000000     0          
T        Si     0.191300000000     0.520250000000     0.950000000000     0          
T        Si     0.346050000000     0.587900000000     0.950000000000     0          
T        Si     0.192050000000     0.621400000000     0.850000000000     0          
O        O      0.179450000000     0.500000000000     0.900000000000     0          
O        O      0.317750000000     0.899250000000     0.800000000000     0          
O        O      0.320550000000     0.500000000000     0.800000000000     0          
O        O      0.182250000000     0.600750000000     0.900000000000     0          
O        O      0.317750000000     0.600750000000     0.800000000000     0          
O        O      0.182250000000     0.899250000000     0.900000000000     0          
O        O      0.094300000000     0.800600000000     0.950000000000     0          
O        O      0.070550000000     0.750000000000     0.900000000000     0          
O        O      0.000000000000     0.780600000000     0.950000000000     0          
O        O      0.432250000000     0.850750000000     0.800000000000     0          
O        O      0.345750000000     0.849300000000     0.950000000000     0          
O        O      0.000000000000     0.883400000000     0.850000000000     0          
T        Si     0.058700000000     0.770250000000     0.950000000000     0          
T        Si     0.403950000000     0.837900000000     0.950000000000     0          
T        Si     0.057950000000     0.871400000000     0.850000000000     0          
O        O      0.405700000000     0.699400000000     0.850000000000     0          
O        O      0.429450000000     0.750000000000     0.800000000000     0          
O        O      0.000000000000     0.719400000000     0.850000000000     0          
O        O      0.067750000000     0.649250000000     0.900000000000     0          
O        O      0.154250000000     0.650700000000     0.850000000000     0          
O        O      0.000000000000     0.616600000000     0.950000000000     0          
T        Si     0.441300000000     0.729750000000     0.850000000000     0          
T        Si     0.096050000000     0.662100000000     0.850000000000     0          
T        Si     0.442050000000     0.628600000000     0.950000000000     0          
O        O      0.094300000000     0.699400000000     0.850000000000     0          
O        O      0.432250000000     0.649250000000     0.800000000000     0          
O        O      0.345750000000     0.650700000000     0.850000000000     0          
T        Si     0.058700000000     0.729750000000     0.850000000000     0          
T        Si     0.403950000000     0.662100000000     0.850000000000     0          
T        Si     0.057950000000     0.628600000000     0.950000000000     0          
O        O      0.405700000000     0.800600000000     0.950000000000     0          
O        O      0.067750000000     0.850750000000     0.900000000000     0          
O        O      0.154250000000     0.849300000000     0.950000000000     0          
T        Si     0.441300000000     0.770250000000     0.950000000000     0          
T        Si     0.096050000000     0.837900000000     0.950000000000     0          
T        Si     0.442050000000     0.871400000000     0.850000000000     0          
O        O      0.429450000000     0.750000000000     0.900000000000     0          
O        O      0.067750000000     0.649250000000     0.800000000000     0          
O        O      0.070550000000     0.750000000000     0.800000000000     0          
O        O      0.432250000000     0.850750000000     0.900000000000     0          
O        O      0.067750000000     0.850750000000     0.800000000000     0          
O        O      0.432250000000     0.649250000000     0.900000000000     0          
O        O      0.844300000000     0.050600000000     0.150000000000     0          
O        O      0.820550000000     0.000000000000     0.100000000000     0          
O        O      0.750000000000     0.030600000000     0.150000000000     0          
O        O      0.682250000000     0.100750000000     0.000000000000     0          
O        O      0.595750000000     0.099300000000     0.150000000000     0          
O        O      0.750000000000     0.133400000000     0.050000000000     0          
T        Si     0.808700000000     0.020250000000     0.150000000000     0          
T        Si     0.653950000000     0.087900000000     0.150000000000     0          
T        Si     0.807950000000     0.121400000000     0.050000000000     0          
O        O      0.655700000000     0.449400000000     0.050000000000     0          
O        O      0.679450000000     0.000000000000     0.000000000000     0          
O        O      0.750000000000     0.469400000000     0.050000000000     0          
O        O      0.817750000000     0.399250000000     0.100000000000     0          
O        O      0.904250000000     0.400700000000     0.050000000000     0          
O        O      0.750000000000     0.366600000000     0.150000000000     0          
T        Si     0.691300000000     0.479750000000     0.050000000000     0          
T        Si     0.846050000000     0.412100000000     0.050000000000     0          
T        Si     0.692050000000     0.378600000000     0.150000000000     0          
O        O      0.844300000000     0.449400000000     0.050000000000     0          
O        O      0.682250000000     0.399250000000     0.000000000000     0          
O        O      0.595750000000     0.400700000000     0.050000000000     0          
T        Si     0.808700000000     0.479750000000     0.050000000000     0          
T        Si     0.653950000000     0.412100000000     0.050000000000     0          
T        Si     0.807950000000     0.378600000000     0.150000000000     0          
O        O      0.655700000000     0.050600000000     0.150000000000     0          
O        O      0.817750000000     0.100750000000     0.100000000000     0          
O        O      0.904250000000     0.099300000000     0.150000000000     0          
T        Si     0.691300000000     0.020250000000     0.150000000000     0          
T        Si     0.846050000000     0.087900000000     0.150000000000     0          
T        Si     0.692050000000     0.121400000000     0.050000000000     0          
O        O      0.679450000000     0.000000000000     0.100000000000     0          
O        O      0.817750000000     0.399250000000     0.000000000000     0          
O        O      0.820550000000     0.000000000000     0.000000000000     0          
O        O      0.682250000000     0.100750000000     0.100000000000     0          
O        O      0.817750000000     0.100750000000     0.000000000000     0          
O        O      0.682250000000     0.399250000000     0.100000000000     0          
O        O      0.594300000000     0.300600000000     0.150000000000     0          
O        O      0.570550000000     0.250000000000     0.100000000000     0          
O        O      0.500000000000     0.280600000000     0.150000000000     0          
O        O      0.932250000000     0.350750000000     0.000000000000     0          
O        O      0.845750000000     0.349300000000     0.150000000000     0          
O        O      0.500000000000     0.383400000000     0.050000000000     0          
T        Si     0.558700000000     0.270250000000     0.150000000000     0          
T        Si     0.903950000000     0.337900000000     0.150000000000     0          
T        Si     0.557950000000     0.371400000000     0.050000000000     0          
O        O      0.905700000000     0.199400000000     0.050000000000     0          
O        O      0.929450000000     0.250000000000     0.000000000000     0          
O        O      0.500000000000     0.219400000000     0.050000000000     0          
O        O      0.567750000000     0.149250000000     0.100000000000     0          
O        O      0.654250000000     0.150700000000     0.050000000000     0          
O        O      0.500000000000     0.116600000000     0.150000000000     0          
T        Si     0.941300000000     0.229750000000     0.050000000000     0          
T        Si     0.596050000000     0.162100000000     0.050000000000     0          
T        Si     0.942050000000     0.128600000000     0.150000000000     0          
O        O      0.594300000000     0.199400000000     0.050000000000     0          
O        O      0.932250000000     0.149250000000     0.000000000000     0          
O        O      0.845750000000     0.150700000000     0.050000000000     0          
T        Si     0.558700000000     0.229750000000     0.050000000000     0          
T        Si     0.903950000000     0.162100000000     0.050000000000     0          
T        Si     0.557950000000     0.128600000000     0.150000000000     0          
O        O      0.905700000000     0.300600000000     0.150000000000     0          
O        O      0.567750000000     0.350750000000     0.100000000000     0          
O        O      0.654250000000     0.349300000000     0.150000000000     0          
T        Si     0.941300000000     0.270250000000     0.150000000000     0          
T        Si     0.596050000000     0.337900000000     0.150000000000     0          
T        Si     0.942050000000     0.371400000000     0.050000000000     0          
O        O      0.929450000000     0.250000000000     0.100000000000     0          
O        O      0.567750000000     0.149250000000     0.000000000000     0          
O        O      0.570550000000     0.250000000000     0.000000000000     0          
O        O      0.932250000000     0.350750000000     0.100000000000     0          
O        O      0.567750000000     0.350750000000     0.000000000000     0          
O        O      0.932250000000     0.149250000000     0.100000000000     0          
O        O      0.844300000000     0.050600000000     0.350000000000     0          
O        O      0.820550000000     0.000000000000     0.300000000000     0          
O        O      0.750000000000     0.030600000000     0.350000000000     0          
O        O      0.682250000000     0.100750000000     0.200000000000     0          
O        O      0.595750000000     0.099300000000     0.350000000000     0          
O        O      0.750000000000     0.133400000000     0.250000000000     0          
T        Si     0.808700000000     0.020250000000     0.350000000000     0          
T        Si     0.653950000000     0.087900000000     0.350000000000     0          
T        Si     0.807950000000     0.121400000000     0.250000000000     0          
O        O      0.655700000000     0.449400000000     0.250000000000     0          
O        O      0.679450000000     0.000000000000     0.200000000000     0          
O        O      0.750000000000     0.469400000000     0.250000000000     0          
O        O      0.817750000000     0.399250000000     0.300000000000     0          
O        O      0.904250000000     0.400700000000     0.250000000000     0          
O        O      0.750000000000     0.366600000000     0.350000000000     0          
T        Si     0.691300000000     0.479750000000     0.250000000000     0          
T        Si     0.846050000000     0.412100000000     0.250000000000     0          
T        Si     0.692050000000     0.378600000000     0.350000000000     0          
O        O      0.844300000000     0.449400000000     0.250000000000     0          
O        O      0.682250000000     0.399250000000     0.200000000000     0          
O        O      0.595750000000     0.400700000000     0.250000000000     0          
T        Si     0.808700000000     0.479750000000     0.250000000000     0          
T        Si     0.653950000000     0.412100000000     0.250000000000     0          
T        Si     0.807950000000     0.378600000000     0.350000000000     0          
O        O      0.655700000000     0.050600000000     0.350000000000     0          
O        O      0.817750000000     0.100750000000     0.300000000000     0          
O        O      0.904250000000     0.099300000000     0.350000000000     0          
T        Si     0.691300000000     0.020250000000     0.350000000000     0          
T        Si     0.846050000000     0.087900000000     0.350000000000     0          
T        Si     0.692050000000     0.121400000000     0.250000000000     0          
O        O      0.679450000000     0.000000000000     0.300000000000     0          
O        O      0.817750000000     0.399250000000     0.200000000000     0          
O        O      0.820550000000     0.000000000000     0.200000000000     0          
O        O      0.682250000000     0.100750000000     0.300000000000     0          
O        O      0.817750000000     0.100750000000     0.200000000000     0          
O        O      0.682250000000     0.399250000000     0.300000000000     0          
O        O      0.594300000000     0.300600000000     0.350000000000     0          
O        O      0.570550000000     0.250000000000     0.300000000000     0          
O        O      0.500000000000     0.280600000000     0.350000000000     0          
O        O      0.932250000000     0.350750000000     0.200000000000     0          
O        O      0.845750000000     0.349300000000     0.350000000000     0          
O        O      0.500000000000     0.383400000000     0.250000000000     0          
T        Si     0.558700000000     0.270250000000     0.350000000000     0          
T        Si     0.903950000000     0.337900000000     0.350000000000     0          
T        Si     0.557950000000     0.371400000000     0.250000000000     0          
O        O      0.905700000000     0.199400000000     0.250000000000     0          
O        O      0.929450000000     0.250000000000     0.200000000000     0          
O        O      0.500000000000     0.219400000000     0.250000000000     0          
O        O      0.567750000000     0.149250000000     0.300000000000     0          
O        O      0.654250000000     0.150700000000     0.250000000000     0          
O        O      0.500000000000     0.116600000000     0.350000000000     0          
T        Si     0.941300000000     0.229750000000     0.250000000000     0          
T        Si     0.596050000000     0.162100000000     0.250000000000     0          
T        Si     0.942050000000     0.128600000000     0.350000000000     0          
O        O      0.594300000000     0.199400000000     0.250000000000     0          
O        O      0.932250000000     0.149250000000     0.200000000000     0          
O        O      0.845750000000     0.150700000000     0.250000000000     0          
T        Si     0.558700000000     0.229750000000     0.250000000000     0          
T        Si     0.903950000000     0.162100000000     0.250000000000     0          
T        Si     0.557950000000     0.128600000000     0.350000000000     0          
O        O      0.905700000000     0.300600000000     0.350000000000     0          
O        O      0.567750000000     0.350750000000     0.300000000000     0          
O        O      0.654250000000     0.349300000000     0.350000000000     0          
T        Si     0.941300000000     0.270250000000     0.350000000000     0          
T        Si     0.596050000000     0.337900000000     0.350000000000     0          
T        Si     0.942050000000     0.371400000000     0.250000000000     0          
O        O      0.929450000000     0.250000000000     0.300000000000     0          
O        O      0.567750000000     0.149250000000     0.200000000000     0          
O        O      0.570550000000     0.250000000000     0.200000000000     0          
O        O      0.932250000000     0.350750000000     0.300000000000     0          
O        O      0.567750000000     0.350750000000     0.200000000000     0          
O        O      0.932250000000     0.149250000000     0.300000000000     0          
O        O      0.844300000000     0.050600000000     0.550000000000     0          
O        O      0.820550000000     0.000000000000     0.500000000000     0          
O        O      0.750000000000     0.030600000000     0.550000000000     0          
O        O      0.682250000000     0.100750000000     0.400000000000     0          
O        O      0.595750000000     0.099300000000     0.550000000000     0          
O        O      0.750000000000     0.133400000000     0.450000000000     0          
T        Si     0.808700000000     0.020250000000     0.550000000000     0          
T        Si     0.653950000000     0.087900000000     0.550000000000     0          
T        Si     0.807950000000     0.121400000000     0.450000000000     0          
O        O      0.655700000000     0.449400000000     0.450000000000     0          
O        O      0.679450000000     0.000000000000     0.400000000000     0          
O        O      0.750000000000     0.469400000000     0.450000000000     0          
O        O      0.817750000000     0.399250000000     0.500000000000     0          
O        O      0.904250000000     0.400700000000     0.450000000000     0          
O        O      0.750000000000     0.366600000000     0.550000000000     0          
T        Si     0.691300000000     0.479750000000     0.450000000000     0          
T        Si     0.846050000000     0.412100000000     0.450000000000     0          
T        Si     0.692050000000     0.378600000000     0.550000000000     0          
O        O      0.844300000000     0.449400000000     0.450000000000     0          
O        O      0.682250000000     0.399250000000     0.400000000000     0          
O        O      0.595750000000     0.400700000000     0.450000000000     0          
T        Si     0.808700000000     0.479750000000     0.450000000000     0          
T        Si     0.653950000000     0.412100000000     0.450000000000     0          
T        Si     0.807950000000     0.378600000000     0.550000000000     0          
O        O      0.655700000000     0.050600000000     0.550000000000     0          
O        O      0.817750000000     0.100750000000     0.500000000000     0          
O        O      0.904250000000     0.099300000000     0.550000000000     0          
T        Si     0.691300000000     0.020250000000     0.550000000000     0          
T        Si     0.846050000000     0.087900000000     0.550000000000     0          
T        Si     0.692050000000     0.121400000000     0.450000000000     0          
O        O      0.679450000000     0.000000000000     0.500000000000     0          
O        O      0.817750000000     0.399250000000     0.400000000000     0          
O        O      0.820550000000     0.000000000000     0.400000000000     0          
O        O      0.682250000000     0.100750000000     0.500000000000     0          
O        O      0.817750000000     0.100750000000     0.400000000000     0          
O        O      0.682250000000     0.399250000000     0.500000000000     0          
O        O      0.594300000000     0.300600000000     0.550000000000     0          
O        O      0.570550000000     0.250000000000     0.500000000000     0          
O        O      0.500000000000     0.280600000000     0.550000000000     0          
O        O      0.932250000000     0.350750000000     0.400000000000     0          
O        O      0.845750000000     0.349300000000     0.550000000000     0          
O        O      0.500000000000     0.383400000000     0.450000000000     0          
T        Si     0.558700000000     0.270250000000     0.550000000000     0          
T        Si     0.903950000000     0.337900000000     0.550000000000     0          
T        Si     0.557950000000     0.371400000000     0.450000000000     0          
O        O      0.905700000000     0.199400000000     0.450000000000     0          
O        O      0.929450000000     0.250000000000     0.400000000000     0          
O        O      0.500000000000     0.219400000000     0.450000000000     0          
O        O      0.567750000000     0.149250000000     0.500000000000     0          
O        O      0.654250000000     0.150700000000     0.450000000000     0          
O        O      0.500000000000     0.116600000000     0.550000000000     0          
T        Si     0.941300000000     0.229750000000     0.450000000000     0          
T        Si     0.596050000000     0.162100000000     0.450000000000     0          
T        Si     0.942050000000     0.128600000000     0.550000000000     0          
O        O      0.594300000000     0.199400000000     0.450000000000     0          
O        O      0.932250000000     0.149250000000     0.400000000000     0          
O        O      0.845750000000     0.150700000000     0.450000000000     0          
T        Si     0.558700000000     0.229750000000     0.450000000000     0          
T        Si     0.903950000000     0.162100000000     0.450000000000     0          
T        Si     0.557950000000     0.128600000000     0.550000000000     0          
O        O      0.905700000000     0.300600000000     0.550000000000     0          
O        O      0.567750000000     0.350750000000     0.500000000000     0          
O        O      0.654250000000     0.349300000000     0.550000000000     0          
T        Si     0.941300000000     0.270250000000     0.550000000000     0          
T        Si     0.596050000000     0.337900000000     0.550000000000     0          
T        Si     0.942050000000     0.371400000000     0.450000000000     0          
O        O      0.929450000000     0.250000000000     0.500000000000     0          
O        O      0.567750000000     0.149250000000     0.400000000000     0          
O        O      0.570550000000     0.250000000000     0.400000000000     0          
O        O      0.932250000000     0.350750000000     0.500000000000     0          
O        O      0.567750000000     0.350750000000     0.400000000000     0          
O        O      0.932250000000     0.149250000000     0.500000000000     0          
O        O      0.844300000000     0.050600000000     0.750000000000     0          
O        O      0.820550000000     0.000000000000     0.700000000000     0          
O        O      0.750000000000     0.030600000000     0.750000000000     0          
O        O      0.682250000000     0.100750000000     0.600000000000     0          
O        O      0.595750000000     0.099300000000     0.750000000000     0          
O        O      0.750000000000     0.133400000000     0.650000000000     0          
T        Si     0.808700000000     0.020250000000     0.750000000000     0          
T        Si     0.653950000000     0.087900000000     0.750000000000     0          
T        Si     0.807950000000     0.121400000000     0.650000000000     0          
O        O      0.655700000000     0.449400000000     0.650000000000     0          
O        O      0.679450000000     0.000000000000     0.600000000000     0          
O        O      0.750000000000     0.469400000000     0.650000000000     0          
O        O      0.817750000000     0.399250000000     0.700000000000     0          
O        O      0.904250000000     0.400700000000     0.650000000000     0          
O        O      0.750000000000     0.366600000000     0.750000000000     0          
T        Si     0.691300000000     0.479750000000     0.650000000000     0          
T        Si     0.846050000000     0.412100000000     0.650000000000     0          
T        Si     0.692050000000     0.378600000000     0.750000000000     0          
O        O      0.844300000000     0.449400000000     0.650000000000     0          
O        O      0.682250000000     0.399250000000     0.600000000000     0          
O        O      0.595750000000     0.400700000000     0.650000000000     0          
T        Si     0.808700000000     0.479750000000     0.650000000000     0          
T        Si     0.653950000000     0.412100000000     0.650000000000     0          
T        Si     0.807950000000     0.378600000000     0.750000000000     0          
O        O      0.655700000000     0.050600000000     0.750000000000     0          
O        O      0.817750000000     0.100750000000     0.700000000000     0          
O        O      0.904250000000     0.099300000000     0.750000000000     0          
T        Si     0.691300000000     0.020250000000     0.750000000000     0          
T        Si     0.846050000000     0.087900000000     0.750000000000     0          
T        Si     0.692050000000     0.121400000000     0.650000000000     0          
O        O      0.679450000000     0.000000000000     0.700000000000     0          
O        O      0.817750000000     0.399250000000     0.600000000000     0          
O        O      0.820550000000     0.000000000000     0.600000000000     0          
O        O      0.682250000000     0.100750000000     0.700000000000     0          
O        O      0.817750000000     0.100750000000     0.600000000000     0          
O        O      0.682250000000     0.399250000000     0.700000000000     0          
O        O      0.594300000000     0.300600000000     0.750000000000     0          
O        O      0.570550000000     0.250000000000     0.700000000000     0          
O        O      0.500000000000     0.280600000000     0.750000000000     0          
O        O      0.932250000000     0.350750000000     0.600000000000     0          
O        O      0.845750000000     0.349300000000     0.750000000000     0          
O        O      0.500000000000     0.383400000000     0.650000000000     0          
T        Si     0.558700000000     0.270250000000     0.750000000000     0          
T        Si     0.903950000000     0.337900000000     0.750000000000     0          
T        Si     0.557950000000     0.371400000000     0.650000000000     0          
O        O      0.905700000000     0.199400000000     0.650000000000     0          
O        O      0.929450000000     0.250000000000     0.600000000000     0          
O        O      0.500000000000     0.219400000000     0.650000000000     0          
O        O      0.567750000000     0.149250000000     0.700000000000     0          
O        O      0.654250000000     0.150700000000     0.650000000000     0          
O        O      0.500000000000     0.116600000000     0.750000000000     0          
T        Si     0.941300000000     0.229750000000     0.650000000000     0          
T        Si     0.596050000000     0.162100000000     0.650000000000     0          
T        Si     0.942050000000     0.128600000000     0.750000000000     0          
O        O      0.594300000000     0.199400000000     0.650000000000     0          
O        O      0.932250000000     0.149250000000     0.600000000000     0          
O        O      0.845750000000     0.150700000000     0.650000000000     0          
T        Si     0.558700000000     0.229750000000     0.650000000000     0          
T        Si     0.903950000000     0.162100000000     0.650000000000     0          
T        Si     0.557950000000     0.128600000000     0.750000000000     0          
O        O      0.905700000000     0.300600000000     0.750000000000     0          
O        O      0.567750000000     0.350750000000     0.700000000000     0          
O        O      0.654250000000     0.349300000000     0.750000000000     0          
T        Si     0.941300000000     0.270250000000     0.750000000000     0          
T        Si     0.596050000000     0.337900000000     0.750000000000     0          
T        Si     0.942050000000     0.371400000000     0.650000000000     0          
O        O      0.929450000000     0.250000000000     0.700000000000     0          
O        O      0.567750000000     0.149250000000     0.600000000000     0          
O        O      0.570550000000     0.250000000000     0.600000000000     0          
O        O      0.932250000000     0.350750000000     0.700000000000     0          
O        O      0.567750000000     0.350750000000     0.600000000000     0          
O        O      0.932250000000     0.149250000000     0.700000000000     0          
O        O      0.844300000000     0.050600000000     0.950000000000     0          
O        O      0.820550000000     0.000000000000     0.900000000000     0          
O        O      0.750000000000     0.030600000000     0.950000000000     0          
O        O      0.682250000000     0.100750000000     0.800000000000     0          
O        O      0.595750000000     0.099300000000     0.950000000000     0          
O        O      0.750000000000     0.133400000000     0.850000000000     0          
T        Si     0.808700000000     0.020250000000     0.950000000000     0          
T        Si     0.653950000000     0.087900000000     0.950000000000     0          
T        Si     0.807950000000     0.121400000000     0.850000000000     0          
O        O      0.655700000000     0.449400000000     0.850000000000     0          
O        O      0.679450000000     0.000000000000     0.800000000000     0          
O        O      0.750000000000     0.469400000000     0.850000000000     0          
O        O      0.817750000000     0.399250000000     0.900000000000     0          
O        O      0.904250000000     0.400700000000     0.850000000000     0          
O        O      0.750000000000     0.366600000000     0.950000000000     0          
T        Si     0.691300000000     0.479750000000     0.850000000000     0          
T        Si     0.846050000000     0.412100000000     0.850000000000     0          
T        Si     0.692050000000     0.378600000000     0.950000000000     0          
O        O      0.844300000000     0.449400000000     0.850000000000     0          
O        O      0.682250000000     0.399250000000     0.800000000000     0          
O        O      0.595750000000     0.400700000000     0.850000000000     0          
T        Si     0.808700000000     0.479750000000     0.850000000000     0          
T        Si     0.653950000000     0.412100000000     0.850000000000     0          
T        Si     0.807950000000     0.378600000000     0.950000000000     0          
O        O      0.655700000000     0.050600000000     0.950000000000     0          
O        O      0.817750000000     0.100750000000     0.900000000000     0          
O        O      0.904250000000     0.099300000000     0.950000000000     0          
T        Si     0.691300000000     0.020250000000     0.950000000000     0          
T        Si     0.846050000000     0.087900000000     0.950000000000     0          
T        Si     0.692050000000     0.121400000000     0.850000000000     0          
O        O      0.679450000000     0.000000000000     0.900000000000     0          
O        O      0.817750000000     0.399250000000     0.800000000000     0          
O        O      0.820550000000     0.000000000000     0.800000000000     0          
O        O      0.682250000000     0.100750000000     0.900000000000     0          
O        O      0.817750000000     0.100750000000     0.800000000000     0          
O        O      0.682250000000     0.399250000000     0.900000000000     0          
O        O      0.594300000000     0.300600000000     0.950000000000     0          
O        O      0.570550000000     0.250000000000     0.900000000000     0          
O        O      0.500000000000     0.280600000000     0.950000000000     0          
O        O      0.932250000000     0.350750000000     0.800000000000     0          
O        O      0.845750000000     0.349300000000     0.950000000000     0          
O        O      0.500000000000     0.383400000000     0.850000000000     0          
T        Si     0.558700000000     0.270250000000     0.950000000000     0          
T        Si     0.903950000000     0.337900000000     0.950000000000     0          
T        Si     0.557950000000     0.371400000000     0.850000000000     0          
O        O      0.905700000000     0.199400000000     0.850000000000     0          
O        O      0.929450000000     0.250000000000     0.800000000000     0          
O        O      0.500000000000     0.219400000000     0.850000000000     0          
O        O      0.567750000000     0.149250000000     0.900000000000     0          
O        O      0.654250000000     0.150700000000     0.850000000000     0          
O        O      0.500000000000     0.116600000000     0.950000000000     0          
T        Si     0.941300000000     0.229750000000     0.850000000000     0          
T        Si     0.596050000000     0.162100000000     0.850000000000     0          
T        Si     0.942050000000     0.128600000000     0.950000000000     0          
O        O      0.594300000000     0.199400000000     0.850000000000     0          
O        O      0.932250000000     0.149250000000     0.800000000000     0          
O        O      0.845750000000     0.150700000000     0.850000000000     0          
T        Si     0.558700000000     0.229750000000     0.850000000000     0          
T        Si     0.903950000000     0.162100000000     0.850000000000     0          
T        Si     0.557950000000     0.128600000000     0.950000000000     0          
O        O      0.905700000000     0.300600000000     0.950000000000     0          
O        O      0.567750000000     0.350750000000     0.900000000000     0          
O        O      0.654250000000     0.349300000000     0.950000000000     0          
T        Si     0.941300000000     0.270250000000     0.950000000000     0          
T        Si     0.596050000000     0.337900000000     0.950000000000     0          
T        Si     0.942050000000     0.371400000000     0.850000000000     0          
O        O      0.929450000000     0.250000000000     0.900000000000     0          
O        O      0.567750000000     0.149250000000     0.800000000000     0          
O        O      0.570550000000     0.250000000000     0.800000000000     0          
O        O      0.932250000000     0.350750000000     0.900000000000     0          
O        O      0.567750000000     0.350750000000     0.800000000000     0          
O        O      0.932250000000     0.149250000000     0.900000000000     0          
O        O      0.844300000000     0.550600000000     0.150000000000     0          
O        O      0.820550000000     0.500000000000     0.100000000000     0          
O        O      0.750000000000     0.530600000000     0.150000000000     0          
O        O      0.682250000000     0.600750000000     0.000000000000     0          
O        O      0.595750000000     0.599300000000     0.150000000000     0          
O        O      0.750000000000     0.633400000000     0.050000000000     0          
T        Si     0.808700000000     0.520250000000     0.150000000000     0          
T        Si     0.653950000000     0.587900000000     0.150000000000     0          
T        Si     0.807950000000     0.621400000000     0.050000000000     0          
O        O      0.655700000000     0.949400000000     0.050000000000     0          
O        O      0.679450000000     0.500000000000     0.000000000000     0          
O        O      0.750000000000     0.969400000000     0.050000000000     0          
O        O      0.817750000000     0.899250000000     0.100000000000     0          
O        O      0.904250000000     0.900700000000     0.050000000000     0          
O        O      0.750000000000     0.866600000000     0.150000000000     0          
T        Si     0.691300000000     0.979750000000     0.050000000000     0          
T        Si     0.846050000000     0.912100000000     0.050000000000     0          
T        Si     0.692050000000     0.878600000000     0.150000000000     0          
O        O      0.844300000000     0.949400000000     0.050000000000     0          
O        O      0.682250000000     0.899250000000     0.000000000000     0          
O        O      0.595750000000     0.900700000000     0.050000000000     0          
T        Si     0.808700000000     0.979750000000     0.050000000000     0          
T        Si     0.653950000000     0.912100000000     0.050000000000     0          
T        Si     0.807950000000     0.878600000000     0.150000000000     0          
O        O      0.655700000000     0.550600000000     0.150000000000     0          
O        O      0.817750000000     0.600750000000     0.100000000000     0          
O        O      0.904250000000     0.599300000000     0.150000000000     0          
T        Si     0.691300000000     0.520250000000     0.150000000000     0          
T        Si     0.846050000000     0.587900000000     0.150000000000     0          
T        Si     0.692050000000     0.621400000000     0.050000000000     0          
O        O      0.679450000000     0.500000000000     0.100000000000     0          
O        O      0.817750000000     0.899250000000     0.000000000000     0          
O        O      0.820550000000     0.500000000000     0.000000000000     0          
O        O      0.682250000000     0.600750000000     0.100000000000     0          
O        O      0.817750000000     0.600750000000     0.000000000000     0          
O        O      0.682250000000     0.899250000000     0.100000000000     0          
O        O      0.594300000000     0.800600000000     0.150000000000     0          
O        O      0.570550000000     0.750000000000     0.100000000000     0          
O        O      0.500000000000     0.780600000000     0.150000000000     0          
O        O      0.932250000000     0.850750000000     0.000000000000     0          
O        O      0.845750000000     0.849300000000     0.150000000000     0          
O        O      0.500000000000     0.883400000000     0.050000000000     0          
T        Si     0.558700000000     0.770250000000     0.150000000000     0          
T        Si     0.903950000000     0.837900000000     0.150000000000     0          
T        Si     0.557950000000     0.871400000000     0.050000000000     0          
O        O      0.905700000000     0.699400000000     0.050000000000     0          
O        O      0.929450000000     0.750000000000     0.000000000000     0          
O        O      0.500000000000     0.719400000000     0.050000000000     0          
O        O      0.567750000000     0.649250000000     0.100000000000     0          
O        O      0.654250000000     0.650700000000     0.050000000000     0          
O        O      0.500000000000     0.616600000000     0.150000000000     0          
T        Si     0.941300000000     0.729750000000     0.050000000000     0          
T        Si     0.596050000000     0.662100000000     0.050000000000     0          
T        Si     0.942050000000     0.628600000000     0.150000000000     0          
O        O      0.594300000000     0.699400000000     0.050000000000     0          
O        O      0.932250000000     0.649250000000     0.000000000000     0          
O        O      0.845750000000     0.650700000000     0.050000000000     0          
T        Si     0.558700000000     0.729750000000     0.050000000000     0          
T        Si     0.903950000000     0.662100000000     0.050000000000     0          
T        Si     0.557950000000     0.628600000000     0.150000000000     0          
O        O      0.905700000000     0.800600000000     0.150000000000     0          
O        O      0.567750000000     0.850750000000     0.100000000000     0          
O        O      0.654250000000     0.849300000000     0.150000000000     0          
T        Si     0.941300000000     0.770250000000     0.150000000000     0          
T        Si     0.596050000000     0.837900000000     0.150000000000     0          
T        Si     0.942050000000     0.871400000000     0.050000000000     0          
O        O      0.929450000000     0.750000000000     0.100000000000     0          
O        O      0.567750000000     0.649250000000     0.000000000000     0          
O        O      0.570550000000     0.750000000000     0.000000000000     0          
O        O      0.932250000000     0.850750000000     0.100000000000     0          
O        O      0.567750000000     0.850750000000     0.000000000000     0          
O        O      0.932250000000     0.649250000000     0.100000000000     0          
O        O      0.844300000000     0.550600000000     0.350000000000     0          
O        O      0.820550000000     0.500000000000     0.300000000000     0          
O        O      0.750000000000     0.530600000000     0.350000000000     0          
O        O      0.682250000000     0.600750000000     0.200000000000     0          
O        O      0.595750000000     0.599300000000     0.350000000000     0          
O        O      0.750000000000     0.633400000000     0.250000000000     0          
T        Si     0.808700000000     0.520250000000     0.350000000000     0          
T        Si     0.653950000000     0.587900000000     0.350000000000     0          
T        Si     0.807950000000     0.621400000000     0.250000000000     0          
O        O      0.655700000000     0.949400000000     0.250000000000     0          
O        O      0.679450000000     0.500000000000     0.200000000000     0          
O        O      0.750000000000     0.969400000000     0.250000000000     0          
O        O      0.817750000000     0.899250000000     0.300000000000     0          
O        O      0.904250000000     0.900700000000     0.250000000000     0          
O        O      0.750000000000     0.866600000000     0.350000000000     0          
T        Si     0.691300000000     0.979750000000     0.250000000000     0          
T        Si     0.846050000000     0.912100000000     0.250000000000     0          
T        Si     0.692050000000     0.878600000000     0.350000000000     0          
O        O      0.844300000000     0.949400000000     0.250000000000     0          
O        O      0.682250000000     0.899250000000     0.200000000000     0          
O        O      0.595750000000     0.900700000000     0.250000000000     0          
T        Si     0.808700000000     0.979750000000     0.250000000000     0          
T        Si     0.653950000000     0.912100000000     0.250000000000     0          
T        Si     0.807950000000     0.878600000000     0.350000000000     0          
O        O      0.655700000000     0.550600000000     0.350000000000     0          
O        O      0.817750000000     0.600750000000     0.300000000000     0          
O        O      0.904250000000     0.599300000000     0.350000000000     0          
T        Si     0.691300000000     0.520250000000     0.350000000000     0          
T        Si     0.846050000000     0.587900000000     0.350000000000     0          
T        Si     0.692050000000     0.621400000000     0.250000000000     0          
O        O      0.679450000000     0.500000000000     0.300000000000     0          
O        O      0.817750000000     0.899250000000     0.200000000000     0          
O        O      0.820550000000     0.500000000000     0.200000000000     0          
O        O      0.682250000000     0.600750000000     0.300000000000     0          
O        O      0.817750000000     0.600750000000     0.200000000000     0          
O        O      0.682250000000     0.899250000000     0.300000000000     0          
O        O      0.594300000000     0.800600000000     0.350000000000     0          
O        O      0.570550000000     0.750000000000     0.300000000000     0          
O        O      0.500000000000     0.780600000000     0.350000000000     0          
O        O      0.932250000000     0.850750000000     0.200000000000     0          
O        O      0.845750000000     0.849300000000     0.350000000000     0          
O        O      0.500000000000     0.883400000000     0.250000000000     0          
T        Si     0.558700000000     0.770250000000     0.350000000000     0          
T        Si     0.903950000000     0.837900000000     0.350000000000     0          
T        Si     0.557950000000     0.871400000000     0.250000000000     0          
O        O      0.905700000000     0.699400000000     0.250000000000     0          
O        O      0.929450000000     0.750000000000     0.200000000000     0          
O        O      0.500000000000     0.719400000000     0.250000000000     0          
O        O      0.567750000000     0.649250000000     0.300000000000     0          
O        O      0.654250000000     0.650700000000     0.250000000000     0          
O        O      0.500000000000     0.616600000000     0.350000000000     0          
T        Si     0.941300000000     0.729750000000     0.250000000000     0          
T        Si     0.596050000000     0.662100000000     0.250000000000     0          
T        Si     0.942050000000     0.628600000000     0.350000000000     0          
O        O      0.594300000000     0.699400000000     0.250000000000     0          
O        O      0.932250000000     0.649250000000     0.200000000000     0          
O        O      0.845750000000     0.650700000000     0.250000000000     0          
T        Si     0.558700000000     0.729750000000     0.250000000000     0          
T        Si     0.903950000000     0.662100000000     0.250000000000     0          
T        Si     0.557950000000     0.628600000000     0.350000000000     0          
O        O      0.905700000000     0.800600000000     0.350000000000     0          
O        O      0.567750000000     0.850750000000     0.300000000000     0          
O        O      0.654250000000     0.849300000000     0.350000000000     0          
T        Si     0.941300000000     0.770250000000     0.350000000000     0          
T        Si     0.596050000000     0.837900000000     0.350000000000     0          
T        Si     0.942050000000     0.871400000000     0.250000000000     0          
O        O      0.929450000000     0.750000000000     0.300000000000     0          
O        O      0.567750000000     0.649250000000     0.200000000000     0          
O        O      0.570550000000     0.750000000000     0.200000000000     0          
O        O      0.932250000000     0.850750000000     0.300000000000     0          
O        O      0.567750000000     0.850750000000     0.200000000000     0          
O        O      0.932250000000     0.649250000000     0.300000000000     0          
O        O      0.844300000000     0.550600000000     0.550000000000     0          
O        O      0.820550000000     0.500000000000     0.500000000000     0          
O        O      0.750000000000     0.530600000000     0.550000000000     0          
O        O      0.682250000000     0.600750000000     0.400000000000     0          
O        O      0.595750000000     0.599300000000     0.550000000000     0          
O        O      0.750000000000     0.633400000000     0.450000000000     0          
T        Si     0.808700000000     0.520250000000     0.550000000000     0          
T        Si     0.653950000000     0.587900000000     0.550000000000     0          
T        Si     0.807950000000     0.621400000000     0.450000000000     0          
O        O      0.655700000000     0.949400000000     0.450000000000     0          
O        O      0.679450000000     0.500000000000     0.400000000000     0          
O        O      0.750000000000     0.969400000000     0.450000000000     0          
O        O      0.817750000000     0.899250000000     0.500000000000     0          
O        O      0.904250000000     0.900700000000     0.450000000000     0          
O        O      0.750000000000     0.866600000000     0.550000000000     0          
T        Si     0.691300000000     0.979750000000     0.450000000000     0          
T        Si     0.846050000000     0.912100000000     0.450000000000     0          
T        Si     0.692050000000     0.878600000000     0.550000000000     0          
O        O      0.844300000000     0.949400000000     0.450000000000     0          
O        O      0.682250000000     0.899250000000     0.400000000000     0          
O        O      0.595750000000     0.900700000000     0.450000000000     0          
T        Si     0.808700000000     0.979750000000     0.450000000000     0          
T        Si     0.653950000000     0.912100000000     0.450000000000     0          
T        Si     0.807950000000     0.878600000000     0.550000000000     0          
O        O      0.655700000000     0.550600000000     0.550000000000     0          
O        O      0.817750000000     0.600750000000     0.500000000000     0          
O        O      0.904250000000     0.599300000000     0.550000000000     0          
T        Si     0.691300000000     0.520250000000     0.550000000000     0          
T        Si     0.846050000000     0.587900000000     0.550000000000     0          
T        Si     0.692050000000     0.621400000000     0.450000000000     0          
O        O      0.679450000000     0.500000000000     0.500000000000     0          
O        O      0.817750000000     0.899250000000     0.400000000000     0          
O        O      0.820550000000     0.500000000000     0.400000000000     0          
O        O      0.682250000000     0.600750000000     0.500000000000     0          
O        O      0.817750000000     0.600750000000     0.400000000000     0          
O        O      0.682250000000     0.899250000000     0.500000000000     0          
O        O      0.594300000000     0.800600000000     0.550000000000     0          
O        O      0.570550000000     0.750000000000     0.500000000000     0          
O        O      0.500000000000     0.780600000000     0.550000000000     0          
O        O      0.932250000000     0.850750000000     0.400000000000     0          
O        O      0.845750000000     0.849300000000     0.550000000000     0          
O        O      0.500000000000     0.883400000000     0.450000000000     0          
T        Si     0.558700000000     0.770250000000     0.550000000000     0          
T        Si     0.903950000000     0.837900000000     0.550000000000     0          
T        Si     0.557950000000     0.871400000000     0.450000000000     0          
O        O      0.905700000000     0.699400000000     0.450000000000     0          
O        O      0.929450000000     0.750000000000     0.400000000000     0          
O        O      0.500000000000     0.719400000000     0.450000000000     0          
O        O      0.567750000000     0.649250000000     0.500000000000     0          
O        O      0.654250000000     0.650700000000     0.450000000000     0          
O        O      0.500000000000     0.616600000000     0.550000000000     0          
T        Si     0.941300000000     0.729750000000     0.450000000000     0          
T        Si     0.596050000000     0.662100000000     0.450000000000     0          
T        Si     0.942050000000     0.628600000000     0.550000000000     0          
O        O      0.594300000000     0.699400000000     0.450000000000     0          
O        O      0.932250000000     0.649250000000     0.400000000000     0          
O        O      0.845750000000     0.650700000000     0.450000000000     0          
T        Si     0.558700000000     0.729750000000     0.450000000000     0          
T        Si     0.903950000000     0.662100000000     0.450000000000     0          
T        Si     0.557950000000     0.628600000000     0.550000000000     0          
O        O      0.905700000000     0.800600000000     0.550000000000     0          
O        O      0.567750000000     0.850750000000     0.500000000000     0          
O        O      0.654250000000     0.849300000000     0.550000000000     0          
T        Si     0.941300000000     0.770250000000     0.550000000000     0          
T        Si     0.596050000000     0.837900000000     0.550000000000     0          
T        Si     0.942050000000     0.871400000000     0.450000000000     0          
O        O      0.929450000000     0.750000000000     0.500000000000     0          
O        O      0.567750000000     0.649250000000     0.400000000000     0          
O        O      0.570550000000     0.750000000000     0.400000000000     0          
O        O      0.932250000000     0.850750000000     0.500000000000     0          
O        O      0.567750000000     0.850750000000     0.400000000000     0          
O        O      0.932250000000     0.649250000000     0.500000000000     0          
O        O      0.844300000000     0.550600000000     0.750000000000     0          
O        O      0.820550000000     0.500000000000     0.700000000000     0          
O        O      0.750000000000     0.530600000000     0.750000000000     0          
O        O      0.682250000000     0.600750000000     0.600000000000     0          
O        O      0.595750000000     0.599300000000     0.750000000000     0          
O        O      0.750000000000     0.633400000000     0.650000000000     0          
T        Si     0.808700000000     0.520250000000     0.750000000000     0          
T        Si     0.653950000000     0.587900000000     0.750000000000     0          
T        Si     0.807950000000     0.621400000000     0.650000000000     0          
O        O      0.655700000000     0.949400000000     0.650000000000     0          
O        O      0.679450000000     0.500000000000     0.600000000000     0          
O        O      0.750000000000     0.969400000000     0.650000000000     0          
O        O      0.817750000000     0.899250000000     0.700000000000     0          
O        O      0.904250000000     0.900700000000     0.650000000000     0          
O        O      0.750000000000     0.866600000000     0.750000000000     0          
T        Si     0.691300000000     0.979750000000     0.650000000000     0          
T        Si     0.846050000000     0.912100000000     0.650000000000     0          
T        Si     0.692050000000     0.878600000000     0.750000000000     0          
O        O      0.844300000000     0.949400000000     0.650000000000     0          
O        O      0.682250000000     0.899250000000     0.600000000000     0          
O        O      0.595750000000     0.900700000000     0.650000000000     0          
T        Si     0.808700000000     0.979750000000     0.650000000000     0          
T        Si     0.653950000000     0.912100000000     0.650000000000     0          
T        Si     0.807950000000     0.878600000000     0.750000000000     0          
O        O      0.655700000000     0.550600000000     0.750000000000     0          
O        O      0.817750000000     0.600750000000     0.700000000000     0          
O        O      0.904250000000     0.599300000000     0.750000000000     0          
T        Si     0.691300000000     0.520250000000     0.750000000000     0          
T        Si     0.846050000000     0.587900000000     0.750000000000     0          
T        Si     0.692050000000     0.621400000000     0.650000000000     0          
O        O      0.679450000000     0.500000000000     0.700000000000     0          
O        O      0.817750000000     0.899250000000     0.600000000000     0          
O        O      0.820550000000     0.500000000000     0.600000000000     0          
O        O      0.682250000000     0.600750000000     0.700000000000     0          
O        O      0.817750000000     0.600750000000     0.600000000000     0          
O        O      0.682250000000     0.899250000000     0.700000000000     0          
O        O      0.594300000000     0.800600000000     0.750000000000     0          
O        O      0.570550000000     0.750000000000     0.700000000000     0          
O        O      0.500000000000     0.780600000000     0.750000000000     0          
O        O      0.932250000000     0.850750000000     0.600000000000     0          
O        O      0.845750000000     0.849300000000     0.750000000000     0          
O        O      0.500000000000     0.883400000000     0.650000000000     0          
T        Si     0.558700000000     0.770250000000     0.750000000000     0          
T        Si     0.903950000000     0.837900000000     0.750000000000     0          
T        Si     0.557950000000     0.871400000000     0.650000000000     0          
O        O      0.905700000000     0.699400000000     0.650000000000     0          
O        O      0.929450000000     0.750000000000     0.600000000000     0          
O        O      0.500000000000     0.719400000000     0.650000000000     0          
O        O      0.567750000000     0.649250000000     0.700000000000     0          
O        O      0.654250000000     0.650700000000     0.650000000000     0          
O        O      0.500000000000     0.616600000000     0.750000000000     0          
T        Si     0.941300000000     0.729750000000     0.650000000000     0          
T        Si     0.596050000000     0.662100000000     0.650000000000     0          
T        Si     0.942050000000     0.628600000000     0.750000000000     0          
O        O      0.594300000000     0.699400000000     0.650000000000     0          
O        O      0.932250000000     0.649250000000     0.600000000000     0          
O        O      0.845750000000     0.650700000000     0.650000000000     0          
T        Si     0.558700000000     0.729750000000     0.650000000000     0          
T        Si     0.903950000000     0.662100000000     0.650000000000     0          
T        Si     0.557950000000     0.628600000000     0.750000000000     0          
O        O      0.905700000000     0.800600000000     0.750000000000     0          
O        O      0.567750000000     0.850750000000     0.700000000000     0          
O        O      0.654250000000     0.849300000000     0.750000000000     0          
T        Si     0.941300000000     0.770250000000     0.750000000000     0          
T        Si     0.596050000000     0.837900000000     0.750000000000     0          
T        Si     0.942050000000     0.871400000000     0.650000000000     0          
O        O      0.929450000000     0.750000000000     0.700000000000     0          
O        O      0.567750000000     0.649250000000     0.600000000000     0          
O        O      0.570550000000     0.750000000000     0.600000000000     0          
O        O      0.932250000000     0.850750000000     0.700000000000     0          
O        O      0.567750000000     0.850750000000     0.600000000000     0          
O        O      0.932250000000     0.649250000000     0.700000000000     0          
O        O      0.844300000000     0.550600000000     0.950000000000     0          
O        O      0.820550000000     0.500000000000     0.900000000000     0          
O        O      0.750000000000     0.530600000000     0.950000000000     0          
O        O      0.682250000000     0.600750000000     0.800000000000     0          
O        O      0.595750000000     0.599300000000     0.950000000000     0          
O        O      0.750000000000     0.633400000000     0.850000000000     0          
T        Si     0.808700000000     0.520250000000     0.950000000000     0          
T        Si     0.653950000000     0.587900000000     0.950000000000     0          
T        Si     0.807950000000     0.621400000000     0.850000000000     0          
O        O      0.655700000000     0.949400000000     0.850000000000     0          
O        O      0.679450000000     0.500000000000     0.800000000000     0          
O        O      0.750000000000     0.969400000000     0.850000000000     0          
O        O      0.817750000000     0.899250000000     0.900000000000     0          
O        O      0.904250000000     0.900700000000     0.850000000000     0          
O        O      0.750000000000     0.866600000000     0.950000000000     0          
T        Si     0.691300000000     0.979750000000     0.850000000000     0          
T        Si     0.846050000000     0.912100000000     0.850000000000     0          
T        Si     0.692050000000     0.878600000000     0.950000000000     0          
O        O      0.844300000000     0.949400000000     0.850000000000     0          
O        O      0.682250000000     0.899250000000     0.800000000000     0          
O        O      0.595750000000     0.900700000000     0.850000000000     0          
T        Si     0.808700000000     0.979750000000     0.850000000000     0          
T        Si     0.653950000000     0.912100000000     0.850000000000     0          
T        Si     0.807950000000     0.878600000000     0.950000000000     0          
O        O      0.655700000000     0.550600000000     0.950000000000     0          
O        O      0.817750000000     0.600750000000     0.900000000000     0          
O        O      0.904250000000     0.599300000000     0.950000000000     0          
T        Si     0.691300000000     0.520250000000     0.950000000000     0          
T        Si     0.846050000000     0.587900000000     0.950000000000     0          
T        Si     0.692050000000     0.621400000000     0.850000000000     0          
O        O      0.679450000000     0.500000000000     0.900000000000     0          
O        O      0.817750000000     0.899250000000     0.800000000000     0          
O        O      0.820550000000     0.500000000000     0.800000000000     0          
O        O      0.682250000000     0.600750000000     0.900000000000     0          
O        O      0.817750000000     0.600750000000     0.800000000000     0          
O        O      0.682250000000     0.899250000000     0.900000000000     0          
O        O      0.594300000000     0.800600000000     0.950000000000     0          
O        O      0.570550000000     0.750000000000     0.900000000000     0          
O        O      0.500000000000     0.780600000000     0.950000000000     0          
O        O      0.932250000000     0.850750000000     0.800000000000     0          
O        O      0.845750000000     0.849300000000     0.950000000000     0          
O        O      0.500000000000     0.883400000000     0.850000000000     0          
T        Si     0.558700000000     0.770250000000     0.950000000000     0          
T        Si     0.903950000000     0.837900000000     0.950000000000     0          
T        Si     0.557950000000     0.871400000000     0.850000000000     0          
O        O      0.905700000000     0.699400000000     0.850000000000     0          
O        O      0.929450000000     0.750000000000     0.800000000000     0          
O        O      0.500000000000     0.719400000000     0.850000000000     0          
O        O      0.567750000000     0.649250000000     0.900000000000     0          
O        O      0.654250000000     0.650700000000     0.850000000000     0          
O        O      0.500000000000     0.616600000000     0.950000000000     0          
T        Si     0.941300000000     0.729750000000     0.850000000000     0          
T        Si     0.596050000000     0.662100000000     0.850000000000     0          
T        Si     0.942050000000     0.628600000000     0.950000000000     0          
O        O      0.594300000000     0.699400000000     0.850000000000     0          
O        O      0.932250000000     0.649250000000     0.800000000000     0          
O        O      0.845750000000     0.650700000000     0.850000000000     0          
T        Si     0.558700000000     0.729750000000     0.850000000000     0          
T        Si     0.903950000000     0.662100000000     0.850000000000     0          
T        Si     0.557950000000     0.628600000000     0.950000000000     0          
O        O      0.905700000000     0.800600000000     0.950000000000     0          
O        O      0.567750000000     0.850750000000     0.900000000000     0          
O        O      0.654250000000     0.849300000000     0.950000000000     0          
T        Si     0.941300000000     0.770250000000     0.950000000000     0          
T        Si     0.596050000000     0.837900000000     0.950000000000     0          
T        Si     0.942050000000     0.871400000000     0.850000000000     0          
O        O      0.929450000000     0.750000000000     0.900000000000     0          
O        O      0.567750000000     0.649250000000     0.800000000000     0          
O        O      0.570550000000     0.750000000000     0.800000000000     0          
O        O      0.932250000000     0.850750000000     0.900000000000     0          
O        O      0.567750000000     0.850750000000     0.800000000000     0          
O        O      0.932250000000     0.649250000000     0.900000000000     0          


