data_zeolite

_audit_creation_method RASPA-1.0
_audit_creation_date 2021-6-6
_audit_author_name ''

_cell_length_a    13.054
_cell_length_b    13.054
_cell_length_c    15.175
_cell_angle_alpha 90
_cell_angle_beta  90
_cell_angle_gamma 120
_cell_volume      40310.6

_symmetry_cell_setting          hexagonal
_symmetry_space_group_name_Hall 'P 1'
_symmetry_space_group_name_H-M  'P 1'
_symmetry_Int_Tables_number     1

_symmetry_equiv_pos_as_xyz 'x,y,z'

loop_
_atom_site_label
_atom_site_type_symbol
_atom_site_fract_x
_atom_site_fract_y
_atom_site_fract_z
_atom_site_charge
T        Si     0.000200000000     0.078166666667     0.050700000000     0          
T        Si     0.032033333333     0.142033333333     0.125000000000     0          
T        Si     0.255366666667     0.000200000000     0.300700000000     0          
T        Si     0.223333333333     0.032033333333     0.375000000000     0          
T        Si     0.255166666667     0.255366666667     0.050700000000     0          
T        Si     0.191300000000     0.223333333333     0.125000000000     0          
T        Si     0.333133333333     0.255166666667     0.300700000000     0          
T        Si     0.301300000000     0.191300000000     0.375000000000     0          
T        Si     0.077966666667     0.333133333333     0.050700000000     0          
T        Si     0.110000000000     0.301300000000     0.125000000000     0          
T        Si     0.078166666667     0.077966666667     0.300700000000     0          
T        Si     0.142033333333     0.110000000000     0.375000000000     0          
T        Si     0.255166666667     0.333133333333     0.199300000000     0          
T        Si     0.191300000000     0.301300000000     0.125000000000     0          
T        Si     0.255366666667     0.255166666667     0.449300000000     0          
T        Si     0.223333333333     0.191300000000     0.375000000000     0          
T        Si     0.000200000000     0.255366666667     0.199300000000     0          
T        Si     0.032033333333     0.223333333333     0.125000000000     0          
T        Si     0.078166666667     0.000200000000     0.449300000000     0          
T        Si     0.142033333333     0.032033333333     0.375000000000     0          
T        Si     0.077966666667     0.078166666667     0.199300000000     0          
T        Si     0.110000000000     0.142033333333     0.125000000000     0          
T        Si     0.333133333333     0.077966666667     0.449300000000     0          
T        Si     0.301300000000     0.110000000000     0.375000000000     0          
T        Si     0.333133333333     0.255166666667     0.449300000000     0          
T        Si     0.077966666667     0.333133333333     0.199300000000     0          
T        Si     0.078166666667     0.077966666667     0.449300000000     0          
T        Si     0.000200000000     0.078166666667     0.199300000000     0          
T        Si     0.255366666667     0.000200000000     0.449300000000     0          
T        Si     0.255166666667     0.255366666667     0.199300000000     0          
T        Si     0.078166666667     0.000200000000     0.300700000000     0          
T        Si     0.077966666667     0.078166666667     0.050700000000     0          
T        Si     0.333133333333     0.077966666667     0.300700000000     0          
T        Si     0.255166666667     0.333133333333     0.050700000000     0          
T        Si     0.255366666667     0.255166666667     0.300700000000     0          
T        Si     0.000200000000     0.255366666667     0.050700000000     0          
T        Si     0.000200000000     0.078166666667     0.550700000000     0          
T        Si     0.032033333333     0.142033333333     0.625000000000     0          
T        Si     0.255366666667     0.000200000000     0.800700000000     0          
T        Si     0.223333333333     0.032033333333     0.875000000000     0          
T        Si     0.255166666667     0.255366666667     0.550700000000     0          
T        Si     0.191300000000     0.223333333333     0.625000000000     0          
T        Si     0.333133333333     0.255166666667     0.800700000000     0          
T        Si     0.301300000000     0.191300000000     0.875000000000     0          
T        Si     0.077966666667     0.333133333333     0.550700000000     0          
T        Si     0.110000000000     0.301300000000     0.625000000000     0          
T        Si     0.078166666667     0.077966666667     0.800700000000     0          
T        Si     0.142033333333     0.110000000000     0.875000000000     0          
T        Si     0.255166666667     0.333133333333     0.699300000000     0          
T        Si     0.191300000000     0.301300000000     0.625000000000     0          
T        Si     0.255366666667     0.255166666667     0.949300000000     0          
T        Si     0.223333333333     0.191300000000     0.875000000000     0          
T        Si     0.000200000000     0.255366666667     0.699300000000     0          
T        Si     0.032033333333     0.223333333333     0.625000000000     0          
T        Si     0.078166666667     0.000200000000     0.949300000000     0          
T        Si     0.142033333333     0.032033333333     0.875000000000     0          
T        Si     0.077966666667     0.078166666667     0.699300000000     0          
T        Si     0.110000000000     0.142033333333     0.625000000000     0          
T        Si     0.333133333333     0.077966666667     0.949300000000     0          
T        Si     0.301300000000     0.110000000000     0.875000000000     0          
T        Si     0.333133333333     0.255166666667     0.949300000000     0          
T        Si     0.077966666667     0.333133333333     0.699300000000     0          
T        Si     0.078166666667     0.077966666667     0.949300000000     0          
T        Si     0.000200000000     0.078166666667     0.699300000000     0          
T        Si     0.255366666667     0.000200000000     0.949300000000     0          
T        Si     0.255166666667     0.255366666667     0.699300000000     0          
T        Si     0.078166666667     0.000200000000     0.800700000000     0          
T        Si     0.077966666667     0.078166666667     0.550700000000     0          
T        Si     0.333133333333     0.077966666667     0.800700000000     0          
T        Si     0.255166666667     0.333133333333     0.550700000000     0          
T        Si     0.255366666667     0.255166666667     0.800700000000     0          
T        Si     0.000200000000     0.255366666667     0.550700000000     0          
T        Si     0.000200000000     0.411500000000     0.050700000000     0          
T        Si     0.032033333333     0.475366666667     0.125000000000     0          
T        Si     0.255366666667     0.333533333333     0.300700000000     0          
T        Si     0.223333333333     0.365366666667     0.375000000000     0          
T        Si     0.255166666667     0.588700000000     0.050700000000     0          
T        Si     0.191300000000     0.556666666667     0.125000000000     0          
T        Si     0.333133333333     0.588500000000     0.300700000000     0          
T        Si     0.301300000000     0.524633333333     0.375000000000     0          
T        Si     0.077966666667     0.666466666667     0.050700000000     0          
T        Si     0.110000000000     0.634633333333     0.125000000000     0          
T        Si     0.078166666667     0.411300000000     0.300700000000     0          
T        Si     0.142033333333     0.443333333333     0.375000000000     0          
T        Si     0.255166666667     0.666466666667     0.199300000000     0          
T        Si     0.191300000000     0.634633333333     0.125000000000     0          
T        Si     0.255366666667     0.588500000000     0.449300000000     0          
T        Si     0.223333333333     0.524633333333     0.375000000000     0          
T        Si     0.000200000000     0.588700000000     0.199300000000     0          
T        Si     0.032033333333     0.556666666667     0.125000000000     0          
T        Si     0.078166666667     0.333533333333     0.449300000000     0          
T        Si     0.142033333333     0.365366666667     0.375000000000     0          
T        Si     0.077966666667     0.411500000000     0.199300000000     0          
T        Si     0.110000000000     0.475366666667     0.125000000000     0          
T        Si     0.333133333333     0.411300000000     0.449300000000     0          
T        Si     0.301300000000     0.443333333333     0.375000000000     0          
T        Si     0.333133333333     0.588500000000     0.449300000000     0          
T        Si     0.077966666667     0.666466666667     0.199300000000     0          
T        Si     0.078166666667     0.411300000000     0.449300000000     0          
T        Si     0.000200000000     0.411500000000     0.199300000000     0          
T        Si     0.255366666667     0.333533333333     0.449300000000     0          
T        Si     0.255166666667     0.588700000000     0.199300000000     0          
T        Si     0.078166666667     0.333533333333     0.300700000000     0          
T        Si     0.077966666667     0.411500000000     0.050700000000     0          
T        Si     0.333133333333     0.411300000000     0.300700000000     0          
T        Si     0.255166666667     0.666466666667     0.050700000000     0          
T        Si     0.255366666667     0.588500000000     0.300700000000     0          
T        Si     0.000200000000     0.588700000000     0.050700000000     0          
T        Si     0.000200000000     0.411500000000     0.550700000000     0          
T        Si     0.032033333333     0.475366666667     0.625000000000     0          
T        Si     0.255366666667     0.333533333333     0.800700000000     0          
T        Si     0.223333333333     0.365366666667     0.875000000000     0          
T        Si     0.255166666667     0.588700000000     0.550700000000     0          
T        Si     0.191300000000     0.556666666667     0.625000000000     0          
T        Si     0.333133333333     0.588500000000     0.800700000000     0          
T        Si     0.301300000000     0.524633333333     0.875000000000     0          
T        Si     0.077966666667     0.666466666667     0.550700000000     0          
T        Si     0.110000000000     0.634633333333     0.625000000000     0          
T        Si     0.078166666667     0.411300000000     0.800700000000     0          
T        Si     0.142033333333     0.443333333333     0.875000000000     0          
T        Si     0.255166666667     0.666466666667     0.699300000000     0          
T        Si     0.191300000000     0.634633333333     0.625000000000     0          
T        Si     0.255366666667     0.588500000000     0.949300000000     0          
T        Si     0.223333333333     0.524633333333     0.875000000000     0          
T        Si     0.000200000000     0.588700000000     0.699300000000     0          
T        Si     0.032033333333     0.556666666667     0.625000000000     0          
T        Si     0.078166666667     0.333533333333     0.949300000000     0          
T        Si     0.142033333333     0.365366666667     0.875000000000     0          
T        Si     0.077966666667     0.411500000000     0.699300000000     0          
T        Si     0.110000000000     0.475366666667     0.625000000000     0          
T        Si     0.333133333333     0.411300000000     0.949300000000     0          
T        Si     0.301300000000     0.443333333333     0.875000000000     0          
T        Si     0.333133333333     0.588500000000     0.949300000000     0          
T        Si     0.077966666667     0.666466666667     0.699300000000     0          
T        Si     0.078166666667     0.411300000000     0.949300000000     0          
T        Si     0.000200000000     0.411500000000     0.699300000000     0          
T        Si     0.255366666667     0.333533333333     0.949300000000     0          
T        Si     0.255166666667     0.588700000000     0.699300000000     0          
T        Si     0.078166666667     0.333533333333     0.800700000000     0          
T        Si     0.077966666667     0.411500000000     0.550700000000     0          
T        Si     0.333133333333     0.411300000000     0.800700000000     0          
T        Si     0.255166666667     0.666466666667     0.550700000000     0          
T        Si     0.255366666667     0.588500000000     0.800700000000     0          
T        Si     0.000200000000     0.588700000000     0.550700000000     0          
T        Si     0.000200000000     0.744833333333     0.050700000000     0          
T        Si     0.032033333333     0.808700000000     0.125000000000     0          
T        Si     0.255366666667     0.666866666667     0.300700000000     0          
T        Si     0.223333333333     0.698700000000     0.375000000000     0          
T        Si     0.255166666667     0.922033333333     0.050700000000     0          
T        Si     0.191300000000     0.890000000000     0.125000000000     0          
T        Si     0.333133333333     0.921833333333     0.300700000000     0          
T        Si     0.301300000000     0.857966666667     0.375000000000     0          
T        Si     0.077966666667     0.999800000000     0.050700000000     0          
T        Si     0.110000000000     0.967966666667     0.125000000000     0          
T        Si     0.078166666667     0.744633333333     0.300700000000     0          
T        Si     0.142033333333     0.776666666667     0.375000000000     0          
T        Si     0.255166666667     0.999800000000     0.199300000000     0          
T        Si     0.191300000000     0.967966666667     0.125000000000     0          
T        Si     0.255366666667     0.921833333333     0.449300000000     0          
T        Si     0.223333333333     0.857966666667     0.375000000000     0          
T        Si     0.000200000000     0.922033333333     0.199300000000     0          
T        Si     0.032033333333     0.890000000000     0.125000000000     0          
T        Si     0.078166666667     0.666866666667     0.449300000000     0          
T        Si     0.142033333333     0.698700000000     0.375000000000     0          
T        Si     0.077966666667     0.744833333333     0.199300000000     0          
T        Si     0.110000000000     0.808700000000     0.125000000000     0          
T        Si     0.333133333333     0.744633333333     0.449300000000     0          
T        Si     0.301300000000     0.776666666667     0.375000000000     0          
T        Si     0.333133333333     0.921833333333     0.449300000000     0          
T        Si     0.077966666667     0.999800000000     0.199300000000     0          
T        Si     0.078166666667     0.744633333333     0.449300000000     0          
T        Si     0.000200000000     0.744833333333     0.199300000000     0          
T        Si     0.255366666667     0.666866666667     0.449300000000     0          
T        Si     0.255166666667     0.922033333333     0.199300000000     0          
T        Si     0.078166666667     0.666866666667     0.300700000000     0          
T        Si     0.077966666667     0.744833333333     0.050700000000     0          
T        Si     0.333133333333     0.744633333333     0.300700000000     0          
T        Si     0.255166666667     0.999800000000     0.050700000000     0          
T        Si     0.255366666667     0.921833333333     0.300700000000     0          
T        Si     0.000200000000     0.922033333333     0.050700000000     0          
T        Si     0.000200000000     0.744833333333     0.550700000000     0          
T        Si     0.032033333333     0.808700000000     0.625000000000     0          
T        Si     0.255366666667     0.666866666667     0.800700000000     0          
T        Si     0.223333333333     0.698700000000     0.875000000000     0          
T        Si     0.255166666667     0.922033333333     0.550700000000     0          
T        Si     0.191300000000     0.890000000000     0.625000000000     0          
T        Si     0.333133333333     0.921833333333     0.800700000000     0          
T        Si     0.301300000000     0.857966666667     0.875000000000     0          
T        Si     0.077966666667     0.999800000000     0.550700000000     0          
T        Si     0.110000000000     0.967966666667     0.625000000000     0          
T        Si     0.078166666667     0.744633333333     0.800700000000     0          
T        Si     0.142033333333     0.776666666667     0.875000000000     0          
T        Si     0.255166666667     0.999800000000     0.699300000000     0          
T        Si     0.191300000000     0.967966666667     0.625000000000     0          
T        Si     0.255366666667     0.921833333333     0.949300000000     0          
T        Si     0.223333333333     0.857966666667     0.875000000000     0          
T        Si     0.000200000000     0.922033333333     0.699300000000     0          
T        Si     0.032033333333     0.890000000000     0.625000000000     0          
T        Si     0.078166666667     0.666866666667     0.949300000000     0          
T        Si     0.142033333333     0.698700000000     0.875000000000     0          
T        Si     0.077966666667     0.744833333333     0.699300000000     0          
T        Si     0.110000000000     0.808700000000     0.625000000000     0          
T        Si     0.333133333333     0.744633333333     0.949300000000     0          
T        Si     0.301300000000     0.776666666667     0.875000000000     0          
T        Si     0.333133333333     0.921833333333     0.949300000000     0          
T        Si     0.077966666667     0.999800000000     0.699300000000     0          
T        Si     0.078166666667     0.744633333333     0.949300000000     0          
T        Si     0.000200000000     0.744833333333     0.699300000000     0          
T        Si     0.255366666667     0.666866666667     0.949300000000     0          
T        Si     0.255166666667     0.922033333333     0.699300000000     0          
T        Si     0.078166666667     0.666866666667     0.800700000000     0          
T        Si     0.077966666667     0.744833333333     0.550700000000     0          
T        Si     0.333133333333     0.744633333333     0.800700000000     0          
T        Si     0.255166666667     0.999800000000     0.550700000000     0          
T        Si     0.255366666667     0.921833333333     0.800700000000     0          
T        Si     0.000200000000     0.922033333333     0.550700000000     0          
T        Si     0.333533333333     0.078166666667     0.050700000000     0          
T        Si     0.365366666667     0.142033333333     0.125000000000     0          
T        Si     0.588700000000     0.000200000000     0.300700000000     0          
T        Si     0.556666666667     0.032033333333     0.375000000000     0          
T        Si     0.588500000000     0.255366666667     0.050700000000     0          
T        Si     0.524633333333     0.223333333333     0.125000000000     0          
T        Si     0.666466666667     0.255166666667     0.300700000000     0          
T        Si     0.634633333333     0.191300000000     0.375000000000     0          
T        Si     0.411300000000     0.333133333333     0.050700000000     0          
T        Si     0.443333333333     0.301300000000     0.125000000000     0          
T        Si     0.411500000000     0.077966666667     0.300700000000     0          
T        Si     0.475366666667     0.110000000000     0.375000000000     0          
T        Si     0.588500000000     0.333133333333     0.199300000000     0          
T        Si     0.524633333333     0.301300000000     0.125000000000     0          
T        Si     0.588700000000     0.255166666667     0.449300000000     0          
T        Si     0.556666666667     0.191300000000     0.375000000000     0          
T        Si     0.333533333333     0.255366666667     0.199300000000     0          
T        Si     0.365366666667     0.223333333333     0.125000000000     0          
T        Si     0.411500000000     0.000200000000     0.449300000000     0          
T        Si     0.475366666667     0.032033333333     0.375000000000     0          
T        Si     0.411300000000     0.078166666667     0.199300000000     0          
T        Si     0.443333333333     0.142033333333     0.125000000000     0          
T        Si     0.666466666667     0.077966666667     0.449300000000     0          
T        Si     0.634633333333     0.110000000000     0.375000000000     0          
T        Si     0.666466666667     0.255166666667     0.449300000000     0          
T        Si     0.411300000000     0.333133333333     0.199300000000     0          
T        Si     0.411500000000     0.077966666667     0.449300000000     0          
T        Si     0.333533333333     0.078166666667     0.199300000000     0          
T        Si     0.588700000000     0.000200000000     0.449300000000     0          
T        Si     0.588500000000     0.255366666667     0.199300000000     0          
T        Si     0.411500000000     0.000200000000     0.300700000000     0          
T        Si     0.411300000000     0.078166666667     0.050700000000     0          
T        Si     0.666466666667     0.077966666667     0.300700000000     0          
T        Si     0.588500000000     0.333133333333     0.050700000000     0          
T        Si     0.588700000000     0.255166666667     0.300700000000     0          
T        Si     0.333533333333     0.255366666667     0.050700000000     0          
T        Si     0.333533333333     0.078166666667     0.550700000000     0          
T        Si     0.365366666667     0.142033333333     0.625000000000     0          
T        Si     0.588700000000     0.000200000000     0.800700000000     0          
T        Si     0.556666666667     0.032033333333     0.875000000000     0          
T        Si     0.588500000000     0.255366666667     0.550700000000     0          
T        Si     0.524633333333     0.223333333333     0.625000000000     0          
T        Si     0.666466666667     0.255166666667     0.800700000000     0          
T        Si     0.634633333333     0.191300000000     0.875000000000     0          
T        Si     0.411300000000     0.333133333333     0.550700000000     0          
T        Si     0.443333333333     0.301300000000     0.625000000000     0          
T        Si     0.411500000000     0.077966666667     0.800700000000     0          
T        Si     0.475366666667     0.110000000000     0.875000000000     0          
T        Si     0.588500000000     0.333133333333     0.699300000000     0          
T        Si     0.524633333333     0.301300000000     0.625000000000     0          
T        Si     0.588700000000     0.255166666667     0.949300000000     0          
T        Si     0.556666666667     0.191300000000     0.875000000000     0          
T        Si     0.333533333333     0.255366666667     0.699300000000     0          
T        Si     0.365366666667     0.223333333333     0.625000000000     0          
T        Si     0.411500000000     0.000200000000     0.949300000000     0          
T        Si     0.475366666667     0.032033333333     0.875000000000     0          
T        Si     0.411300000000     0.078166666667     0.699300000000     0          
T        Si     0.443333333333     0.142033333333     0.625000000000     0          
T        Si     0.666466666667     0.077966666667     0.949300000000     0          
T        Si     0.634633333333     0.110000000000     0.875000000000     0          
T        Si     0.666466666667     0.255166666667     0.949300000000     0          
T        Si     0.411300000000     0.333133333333     0.699300000000     0          
T        Si     0.411500000000     0.077966666667     0.949300000000     0          
T        Si     0.333533333333     0.078166666667     0.699300000000     0          
T        Si     0.588700000000     0.000200000000     0.949300000000     0          
T        Si     0.588500000000     0.255366666667     0.699300000000     0          
T        Si     0.411500000000     0.000200000000     0.800700000000     0          
T        Si     0.411300000000     0.078166666667     0.550700000000     0          
T        Si     0.666466666667     0.077966666667     0.800700000000     0          
T        Si     0.588500000000     0.333133333333     0.550700000000     0          
T        Si     0.588700000000     0.255166666667     0.800700000000     0          
T        Si     0.333533333333     0.255366666667     0.550700000000     0          
T        Si     0.333533333333     0.411500000000     0.050700000000     0          
T        Si     0.365366666667     0.475366666667     0.125000000000     0          
T        Si     0.588700000000     0.333533333333     0.300700000000     0          
T        Si     0.556666666667     0.365366666667     0.375000000000     0          
T        Si     0.588500000000     0.588700000000     0.050700000000     0          
T        Si     0.524633333333     0.556666666667     0.125000000000     0          
T        Si     0.666466666667     0.588500000000     0.300700000000     0          
T        Si     0.634633333333     0.524633333333     0.375000000000     0          
T        Si     0.411300000000     0.666466666667     0.050700000000     0          
T        Si     0.443333333333     0.634633333333     0.125000000000     0          
T        Si     0.411500000000     0.411300000000     0.300700000000     0          
T        Si     0.475366666667     0.443333333333     0.375000000000     0          
T        Si     0.588500000000     0.666466666667     0.199300000000     0          
T        Si     0.524633333333     0.634633333333     0.125000000000     0          
T        Si     0.588700000000     0.588500000000     0.449300000000     0          
T        Si     0.556666666667     0.524633333333     0.375000000000     0          
T        Si     0.333533333333     0.588700000000     0.199300000000     0          
T        Si     0.365366666667     0.556666666667     0.125000000000     0          
T        Si     0.411500000000     0.333533333333     0.449300000000     0          
T        Si     0.475366666667     0.365366666667     0.375000000000     0          
T        Si     0.411300000000     0.411500000000     0.199300000000     0          
T        Si     0.443333333333     0.475366666667     0.125000000000     0          
T        Si     0.666466666667     0.411300000000     0.449300000000     0          
T        Si     0.634633333333     0.443333333333     0.375000000000     0          
T        Si     0.666466666667     0.588500000000     0.449300000000     0          
T        Si     0.411300000000     0.666466666667     0.199300000000     0          
T        Si     0.411500000000     0.411300000000     0.449300000000     0          
T        Si     0.333533333333     0.411500000000     0.199300000000     0          
T        Si     0.588700000000     0.333533333333     0.449300000000     0          
T        Si     0.588500000000     0.588700000000     0.199300000000     0          
T        Si     0.411500000000     0.333533333333     0.300700000000     0          
T        Si     0.411300000000     0.411500000000     0.050700000000     0          
T        Si     0.666466666667     0.411300000000     0.300700000000     0          
T        Si     0.588500000000     0.666466666667     0.050700000000     0          
T        Si     0.588700000000     0.588500000000     0.300700000000     0          
T        Si     0.333533333333     0.588700000000     0.050700000000     0          
T        Si     0.333533333333     0.411500000000     0.550700000000     0          
T        Si     0.365366666667     0.475366666667     0.625000000000     0          
T        Si     0.588700000000     0.333533333333     0.800700000000     0          
T        Si     0.556666666667     0.365366666667     0.875000000000     0          
T        Si     0.588500000000     0.588700000000     0.550700000000     0          
T        Si     0.524633333333     0.556666666667     0.625000000000     0          
T        Si     0.666466666667     0.588500000000     0.800700000000     0          
T        Si     0.634633333333     0.524633333333     0.875000000000     0          
T        Si     0.411300000000     0.666466666667     0.550700000000     0          
T        Si     0.443333333333     0.634633333333     0.625000000000     0          
T        Si     0.411500000000     0.411300000000     0.800700000000     0          
T        Si     0.475366666667     0.443333333333     0.875000000000     0          
T        Si     0.588500000000     0.666466666667     0.699300000000     0          
T        Si     0.524633333333     0.634633333333     0.625000000000     0          
T        Si     0.588700000000     0.588500000000     0.949300000000     0          
T        Si     0.556666666667     0.524633333333     0.875000000000     0          
T        Si     0.333533333333     0.588700000000     0.699300000000     0          
T        Si     0.365366666667     0.556666666667     0.625000000000     0          
T        Si     0.411500000000     0.333533333333     0.949300000000     0          
T        Si     0.475366666667     0.365366666667     0.875000000000     0          
T        Si     0.411300000000     0.411500000000     0.699300000000     0          
T        Si     0.443333333333     0.475366666667     0.625000000000     0          
T        Si     0.666466666667     0.411300000000     0.949300000000     0          
T        Si     0.634633333333     0.443333333333     0.875000000000     0          
T        Si     0.666466666667     0.588500000000     0.949300000000     0          
T        Si     0.411300000000     0.666466666667     0.699300000000     0          
T        Si     0.411500000000     0.411300000000     0.949300000000     0          
T        Si     0.333533333333     0.411500000000     0.699300000000     0          
T        Si     0.588700000000     0.333533333333     0.949300000000     0          
T        Si     0.588500000000     0.588700000000     0.699300000000     0          
T        Si     0.411500000000     0.333533333333     0.800700000000     0          
T        Si     0.411300000000     0.411500000000     0.550700000000     0          
T        Si     0.666466666667     0.411300000000     0.800700000000     0          
T        Si     0.588500000000     0.666466666667     0.550700000000     0          
T        Si     0.588700000000     0.588500000000     0.800700000000     0          
T        Si     0.333533333333     0.588700000000     0.550700000000     0          
T        Si     0.333533333333     0.744833333333     0.050700000000     0          
T        Si     0.365366666667     0.808700000000     0.125000000000     0          
T        Si     0.588700000000     0.666866666667     0.300700000000     0          
T        Si     0.556666666667     0.698700000000     0.375000000000     0          
T        Si     0.588500000000     0.922033333333     0.050700000000     0          
T        Si     0.524633333333     0.890000000000     0.125000000000     0          
T        Si     0.666466666667     0.921833333333     0.300700000000     0          
T        Si     0.634633333333     0.857966666667     0.375000000000     0          
T        Si     0.411300000000     0.999800000000     0.050700000000     0          
T        Si     0.443333333333     0.967966666667     0.125000000000     0          
T        Si     0.411500000000     0.744633333333     0.300700000000     0          
T        Si     0.475366666667     0.776666666667     0.375000000000     0          
T        Si     0.588500000000     0.999800000000     0.199300000000     0          
T        Si     0.524633333333     0.967966666667     0.125000000000     0          
T        Si     0.588700000000     0.921833333333     0.449300000000     0          
T        Si     0.556666666667     0.857966666667     0.375000000000     0          
T        Si     0.333533333333     0.922033333333     0.199300000000     0          
T        Si     0.365366666667     0.890000000000     0.125000000000     0          
T        Si     0.411500000000     0.666866666667     0.449300000000     0          
T        Si     0.475366666667     0.698700000000     0.375000000000     0          
T        Si     0.411300000000     0.744833333333     0.199300000000     0          
T        Si     0.443333333333     0.808700000000     0.125000000000     0          
T        Si     0.666466666667     0.744633333333     0.449300000000     0          
T        Si     0.634633333333     0.776666666667     0.375000000000     0          
T        Si     0.666466666667     0.921833333333     0.449300000000     0          
T        Si     0.411300000000     0.999800000000     0.199300000000     0          
T        Si     0.411500000000     0.744633333333     0.449300000000     0          
T        Si     0.333533333333     0.744833333333     0.199300000000     0          
T        Si     0.588700000000     0.666866666667     0.449300000000     0          
T        Si     0.588500000000     0.922033333333     0.199300000000     0          
T        Si     0.411500000000     0.666866666667     0.300700000000     0          
T        Si     0.411300000000     0.744833333333     0.050700000000     0          
T        Si     0.666466666667     0.744633333333     0.300700000000     0          
T        Si     0.588500000000     0.999800000000     0.050700000000     0          
T        Si     0.588700000000     0.921833333333     0.300700000000     0          
T        Si     0.333533333333     0.922033333333     0.050700000000     0          
T        Si     0.333533333333     0.744833333333     0.550700000000     0          
T        Si     0.365366666667     0.808700000000     0.625000000000     0          
T        Si     0.588700000000     0.666866666667     0.800700000000     0          
T        Si     0.556666666667     0.698700000000     0.875000000000     0          
T        Si     0.588500000000     0.922033333333     0.550700000000     0          
T        Si     0.524633333333     0.890000000000     0.625000000000     0          
T        Si     0.666466666667     0.921833333333     0.800700000000     0          
T        Si     0.634633333333     0.857966666667     0.875000000000     0          
T        Si     0.411300000000     0.999800000000     0.550700000000     0          
T        Si     0.443333333333     0.967966666667     0.625000000000     0          
T        Si     0.411500000000     0.744633333333     0.800700000000     0          
T        Si     0.475366666667     0.776666666667     0.875000000000     0          
T        Si     0.588500000000     0.999800000000     0.699300000000     0          
T        Si     0.524633333333     0.967966666667     0.625000000000     0          
T        Si     0.588700000000     0.921833333333     0.949300000000     0          
T        Si     0.556666666667     0.857966666667     0.875000000000     0          
T        Si     0.333533333333     0.922033333333     0.699300000000     0          
T        Si     0.365366666667     0.890000000000     0.625000000000     0          
T        Si     0.411500000000     0.666866666667     0.949300000000     0          
T        Si     0.475366666667     0.698700000000     0.875000000000     0          
T        Si     0.411300000000     0.744833333333     0.699300000000     0          
T        Si     0.443333333333     0.808700000000     0.625000000000     0          
T        Si     0.666466666667     0.744633333333     0.949300000000     0          
T        Si     0.634633333333     0.776666666667     0.875000000000     0          
T        Si     0.666466666667     0.921833333333     0.949300000000     0          
T        Si     0.411300000000     0.999800000000     0.699300000000     0          
T        Si     0.411500000000     0.744633333333     0.949300000000     0          
T        Si     0.333533333333     0.744833333333     0.699300000000     0          
T        Si     0.588700000000     0.666866666667     0.949300000000     0          
T        Si     0.588500000000     0.922033333333     0.699300000000     0          
T        Si     0.411500000000     0.666866666667     0.800700000000     0          
T        Si     0.411300000000     0.744833333333     0.550700000000     0          
T        Si     0.666466666667     0.744633333333     0.800700000000     0          
T        Si     0.588500000000     0.999800000000     0.550700000000     0          
T        Si     0.588700000000     0.921833333333     0.800700000000     0          
T        Si     0.333533333333     0.922033333333     0.550700000000     0          
T        Si     0.666866666667     0.078166666667     0.050700000000     0          
T        Si     0.698700000000     0.142033333333     0.125000000000     0          
T        Si     0.922033333333     0.000200000000     0.300700000000     0          
T        Si     0.890000000000     0.032033333333     0.375000000000     0          
T        Si     0.921833333333     0.255366666667     0.050700000000     0          
T        Si     0.857966666667     0.223333333333     0.125000000000     0          
T        Si     0.999800000000     0.255166666667     0.300700000000     0          
T        Si     0.967966666667     0.191300000000     0.375000000000     0          
T        Si     0.744633333333     0.333133333333     0.050700000000     0          
T        Si     0.776666666667     0.301300000000     0.125000000000     0          
T        Si     0.744833333333     0.077966666667     0.300700000000     0          
T        Si     0.808700000000     0.110000000000     0.375000000000     0          
T        Si     0.921833333333     0.333133333333     0.199300000000     0          
T        Si     0.857966666667     0.301300000000     0.125000000000     0          
T        Si     0.922033333333     0.255166666667     0.449300000000     0          
T        Si     0.890000000000     0.191300000000     0.375000000000     0          
T        Si     0.666866666667     0.255366666667     0.199300000000     0          
T        Si     0.698700000000     0.223333333333     0.125000000000     0          
T        Si     0.744833333333     0.000200000000     0.449300000000     0          
T        Si     0.808700000000     0.032033333333     0.375000000000     0          
T        Si     0.744633333333     0.078166666667     0.199300000000     0          
T        Si     0.776666666667     0.142033333333     0.125000000000     0          
T        Si     0.999800000000     0.077966666667     0.449300000000     0          
T        Si     0.967966666667     0.110000000000     0.375000000000     0          
T        Si     0.999800000000     0.255166666667     0.449300000000     0          
T        Si     0.744633333333     0.333133333333     0.199300000000     0          
T        Si     0.744833333333     0.077966666667     0.449300000000     0          
T        Si     0.666866666667     0.078166666667     0.199300000000     0          
T        Si     0.922033333333     0.000200000000     0.449300000000     0          
T        Si     0.921833333333     0.255366666667     0.199300000000     0          
T        Si     0.744833333333     0.000200000000     0.300700000000     0          
T        Si     0.744633333333     0.078166666667     0.050700000000     0          
T        Si     0.999800000000     0.077966666667     0.300700000000     0          
T        Si     0.921833333333     0.333133333333     0.050700000000     0          
T        Si     0.922033333333     0.255166666667     0.300700000000     0          
T        Si     0.666866666667     0.255366666667     0.050700000000     0          
T        Si     0.666866666667     0.078166666667     0.550700000000     0          
T        Si     0.698700000000     0.142033333333     0.625000000000     0          
T        Si     0.922033333333     0.000200000000     0.800700000000     0          
T        Si     0.890000000000     0.032033333333     0.875000000000     0          
T        Si     0.921833333333     0.255366666667     0.550700000000     0          
T        Si     0.857966666667     0.223333333333     0.625000000000     0          
T        Si     0.999800000000     0.255166666667     0.800700000000     0          
T        Si     0.967966666667     0.191300000000     0.875000000000     0          
T        Si     0.744633333333     0.333133333333     0.550700000000     0          
T        Si     0.776666666667     0.301300000000     0.625000000000     0          
T        Si     0.744833333333     0.077966666667     0.800700000000     0          
T        Si     0.808700000000     0.110000000000     0.875000000000     0          
T        Si     0.921833333333     0.333133333333     0.699300000000     0          
T        Si     0.857966666667     0.301300000000     0.625000000000     0          
T        Si     0.922033333333     0.255166666667     0.949300000000     0          
T        Si     0.890000000000     0.191300000000     0.875000000000     0          
T        Si     0.666866666667     0.255366666667     0.699300000000     0          
T        Si     0.698700000000     0.223333333333     0.625000000000     0          
T        Si     0.744833333333     0.000200000000     0.949300000000     0          
T        Si     0.808700000000     0.032033333333     0.875000000000     0          
T        Si     0.744633333333     0.078166666667     0.699300000000     0          
T        Si     0.776666666667     0.142033333333     0.625000000000     0          
T        Si     0.999800000000     0.077966666667     0.949300000000     0          
T        Si     0.967966666667     0.110000000000     0.875000000000     0          
T        Si     0.999800000000     0.255166666667     0.949300000000     0          
T        Si     0.744633333333     0.333133333333     0.699300000000     0          
T        Si     0.744833333333     0.077966666667     0.949300000000     0          
T        Si     0.666866666667     0.078166666667     0.699300000000     0          
T        Si     0.922033333333     0.000200000000     0.949300000000     0          
T        Si     0.921833333333     0.255366666667     0.699300000000     0          
T        Si     0.744833333333     0.000200000000     0.800700000000     0          
T        Si     0.744633333333     0.078166666667     0.550700000000     0          
T        Si     0.999800000000     0.077966666667     0.800700000000     0          
T        Si     0.921833333333     0.333133333333     0.550700000000     0          
T        Si     0.922033333333     0.255166666667     0.800700000000     0          
T        Si     0.666866666667     0.255366666667     0.550700000000     0          
T        Si     0.666866666667     0.411500000000     0.050700000000     0          
T        Si     0.698700000000     0.475366666667     0.125000000000     0          
T        Si     0.922033333333     0.333533333333     0.300700000000     0          
T        Si     0.890000000000     0.365366666667     0.375000000000     0          
T        Si     0.921833333333     0.588700000000     0.050700000000     0          
T        Si     0.857966666667     0.556666666667     0.125000000000     0          
T        Si     0.999800000000     0.588500000000     0.300700000000     0          
T        Si     0.967966666667     0.524633333333     0.375000000000     0          
T        Si     0.744633333333     0.666466666667     0.050700000000     0          
T        Si     0.776666666667     0.634633333333     0.125000000000     0          
T        Si     0.744833333333     0.411300000000     0.300700000000     0          
T        Si     0.808700000000     0.443333333333     0.375000000000     0          
T        Si     0.921833333333     0.666466666667     0.199300000000     0          
T        Si     0.857966666667     0.634633333333     0.125000000000     0          
T        Si     0.922033333333     0.588500000000     0.449300000000     0          
T        Si     0.890000000000     0.524633333333     0.375000000000     0          
T        Si     0.666866666667     0.588700000000     0.199300000000     0          
T        Si     0.698700000000     0.556666666667     0.125000000000     0          
T        Si     0.744833333333     0.333533333333     0.449300000000     0          
T        Si     0.808700000000     0.365366666667     0.375000000000     0          
T        Si     0.744633333333     0.411500000000     0.199300000000     0          
T        Si     0.776666666667     0.475366666667     0.125000000000     0          
T        Si     0.999800000000     0.411300000000     0.449300000000     0          
T        Si     0.967966666667     0.443333333333     0.375000000000     0          
T        Si     0.999800000000     0.588500000000     0.449300000000     0          
T        Si     0.744633333333     0.666466666667     0.199300000000     0          
T        Si     0.744833333333     0.411300000000     0.449300000000     0          
T        Si     0.666866666667     0.411500000000     0.199300000000     0          
T        Si     0.922033333333     0.333533333333     0.449300000000     0          
T        Si     0.921833333333     0.588700000000     0.199300000000     0          
T        Si     0.744833333333     0.333533333333     0.300700000000     0          
T        Si     0.744633333333     0.411500000000     0.050700000000     0          
T        Si     0.999800000000     0.411300000000     0.300700000000     0          
T        Si     0.921833333333     0.666466666667     0.050700000000     0          
T        Si     0.922033333333     0.588500000000     0.300700000000     0          
T        Si     0.666866666667     0.588700000000     0.050700000000     0          
T        Si     0.666866666667     0.411500000000     0.550700000000     0          
T        Si     0.698700000000     0.475366666667     0.625000000000     0          
T        Si     0.922033333333     0.333533333333     0.800700000000     0          
T        Si     0.890000000000     0.365366666667     0.875000000000     0          
T        Si     0.921833333333     0.588700000000     0.550700000000     0          
T        Si     0.857966666667     0.556666666667     0.625000000000     0          
T        Si     0.999800000000     0.588500000000     0.800700000000     0          
T        Si     0.967966666667     0.524633333333     0.875000000000     0          
T        Si     0.744633333333     0.666466666667     0.550700000000     0          
T        Si     0.776666666667     0.634633333333     0.625000000000     0          
T        Si     0.744833333333     0.411300000000     0.800700000000     0          
T        Si     0.808700000000     0.443333333333     0.875000000000     0          
T        Si     0.921833333333     0.666466666667     0.699300000000     0          
T        Si     0.857966666667     0.634633333333     0.625000000000     0          
T        Si     0.922033333333     0.588500000000     0.949300000000     0          
T        Si     0.890000000000     0.524633333333     0.875000000000     0          
T        Si     0.666866666667     0.588700000000     0.699300000000     0          
T        Si     0.698700000000     0.556666666667     0.625000000000     0          
T        Si     0.744833333333     0.333533333333     0.949300000000     0          
T        Si     0.808700000000     0.365366666667     0.875000000000     0          
T        Si     0.744633333333     0.411500000000     0.699300000000     0          
T        Si     0.776666666667     0.475366666667     0.625000000000     0          
T        Si     0.999800000000     0.411300000000     0.949300000000     0          
T        Si     0.967966666667     0.443333333333     0.875000000000     0          
T        Si     0.999800000000     0.588500000000     0.949300000000     0          
T        Si     0.744633333333     0.666466666667     0.699300000000     0          
T        Si     0.744833333333     0.411300000000     0.949300000000     0          
T        Si     0.666866666667     0.411500000000     0.699300000000     0          
T        Si     0.922033333333     0.333533333333     0.949300000000     0          
T        Si     0.921833333333     0.588700000000     0.699300000000     0          
T        Si     0.744833333333     0.333533333333     0.800700000000     0          
T        Si     0.744633333333     0.411500000000     0.550700000000     0          
T        Si     0.999800000000     0.411300000000     0.800700000000     0          
T        Si     0.921833333333     0.666466666667     0.550700000000     0          
T        Si     0.922033333333     0.588500000000     0.800700000000     0          
T        Si     0.666866666667     0.588700000000     0.550700000000     0          
T        Si     0.666866666667     0.744833333333     0.050700000000     0          
T        Si     0.698700000000     0.808700000000     0.125000000000     0          
T        Si     0.922033333333     0.666866666667     0.300700000000     0          
T        Si     0.890000000000     0.698700000000     0.375000000000     0          
T        Si     0.921833333333     0.922033333333     0.050700000000     0          
T        Si     0.857966666667     0.890000000000     0.125000000000     0          
T        Si     0.999800000000     0.921833333333     0.300700000000     0          
T        Si     0.967966666667     0.857966666667     0.375000000000     0          
T        Si     0.744633333333     0.999800000000     0.050700000000     0          
T        Si     0.776666666667     0.967966666667     0.125000000000     0          
T        Si     0.744833333333     0.744633333333     0.300700000000     0          
T        Si     0.808700000000     0.776666666667     0.375000000000     0          
T        Si     0.921833333333     0.999800000000     0.199300000000     0          
T        Si     0.857966666667     0.967966666667     0.125000000000     0          
T        Si     0.922033333333     0.921833333333     0.449300000000     0          
T        Si     0.890000000000     0.857966666667     0.375000000000     0          
T        Si     0.666866666667     0.922033333333     0.199300000000     0          
T        Si     0.698700000000     0.890000000000     0.125000000000     0          
T        Si     0.744833333333     0.666866666667     0.449300000000     0          
T        Si     0.808700000000     0.698700000000     0.375000000000     0          
T        Si     0.744633333333     0.744833333333     0.199300000000     0          
T        Si     0.776666666667     0.808700000000     0.125000000000     0          
T        Si     0.999800000000     0.744633333333     0.449300000000     0          
T        Si     0.967966666667     0.776666666667     0.375000000000     0          
T        Si     0.999800000000     0.921833333333     0.449300000000     0          
T        Si     0.744633333333     0.999800000000     0.199300000000     0          
T        Si     0.744833333333     0.744633333333     0.449300000000     0          
T        Si     0.666866666667     0.744833333333     0.199300000000     0          
T        Si     0.922033333333     0.666866666667     0.449300000000     0          
T        Si     0.921833333333     0.922033333333     0.199300000000     0          
T        Si     0.744833333333     0.666866666667     0.300700000000     0          
T        Si     0.744633333333     0.744833333333     0.050700000000     0          
T        Si     0.999800000000     0.744633333333     0.300700000000     0          
T        Si     0.921833333333     0.999800000000     0.050700000000     0          
T        Si     0.922033333333     0.921833333333     0.300700000000     0          
T        Si     0.666866666667     0.922033333333     0.050700000000     0          
T        Si     0.666866666667     0.744833333333     0.550700000000     0          
T        Si     0.698700000000     0.808700000000     0.625000000000     0          
T        Si     0.922033333333     0.666866666667     0.800700000000     0          
T        Si     0.890000000000     0.698700000000     0.875000000000     0          
T        Si     0.921833333333     0.922033333333     0.550700000000     0          
T        Si     0.857966666667     0.890000000000     0.625000000000     0          
T        Si     0.999800000000     0.921833333333     0.800700000000     0          
T        Si     0.967966666667     0.857966666667     0.875000000000     0          
T        Si     0.744633333333     0.999800000000     0.550700000000     0          
T        Si     0.776666666667     0.967966666667     0.625000000000     0          
T        Si     0.744833333333     0.744633333333     0.800700000000     0          
T        Si     0.808700000000     0.776666666667     0.875000000000     0          
T        Si     0.921833333333     0.999800000000     0.699300000000     0          
T        Si     0.857966666667     0.967966666667     0.625000000000     0          
T        Si     0.922033333333     0.921833333333     0.949300000000     0          
T        Si     0.890000000000     0.857966666667     0.875000000000     0          
T        Si     0.666866666667     0.922033333333     0.699300000000     0          
T        Si     0.698700000000     0.890000000000     0.625000000000     0          
T        Si     0.744833333333     0.666866666667     0.949300000000     0          
T        Si     0.808700000000     0.698700000000     0.875000000000     0          
T        Si     0.744633333333     0.744833333333     0.699300000000     0          
T        Si     0.776666666667     0.808700000000     0.625000000000     0          
T        Si     0.999800000000     0.744633333333     0.949300000000     0          
T        Si     0.967966666667     0.776666666667     0.875000000000     0          
T        Si     0.999800000000     0.921833333333     0.949300000000     0          
T        Si     0.744633333333     0.999800000000     0.699300000000     0          
T        Si     0.744833333333     0.744633333333     0.949300000000     0          
T        Si     0.666866666667     0.744833333333     0.699300000000     0          
T        Si     0.922033333333     0.666866666667     0.949300000000     0          
T        Si     0.921833333333     0.922033333333     0.699300000000     0          
T        Si     0.744833333333     0.666866666667     0.800700000000     0          
T        Si     0.744633333333     0.744833333333     0.550700000000     0          
T        Si     0.999800000000     0.744633333333     0.800700000000     0          
T        Si     0.921833333333     0.999800000000     0.550700000000     0          
T        Si     0.922033333333     0.921833333333     0.800700000000     0          
T        Si     0.666866666667     0.922033333333     0.550700000000     0          
O        O      0.290366666667     0.042966666667     0.064050000000     0          
O        O      0.012000000000     0.115800000000     0.081700000000     0          
O        O      0.031900000000     0.063800000000     0.056950000000     0          
O        O      0.000000000000     0.090166666667     0.000000000000     0          
O        O      0.078533333333     0.157066666667     0.125000000000     0          
O        O      0.025233333333     0.179266666667     0.125000000000     0          
O        O      0.247400000000     0.290366666667     0.314050000000     0          
O        O      0.229533333333     0.012000000000     0.331700000000     0          
O        O      0.301433333333     0.031900000000     0.306950000000     0          
O        O      0.243166666667     0.000000000000     0.250000000000     0          
O        O      0.254800000000     0.078533333333     0.375000000000     0          
O        O      0.179300000000     0.025233333333     0.375000000000     0          
O        O      0.290366666667     0.247400000000     0.064050000000     0          
O        O      0.217533333333     0.229533333333     0.081700000000     0          
O        O      0.269533333333     0.301433333333     0.056950000000     0          
O        O      0.243166666667     0.243166666667     0.000000000000     0          
O        O      0.176266666667     0.254800000000     0.125000000000     0          
O        O      0.154066666667     0.179300000000     0.125000000000     0          
O        O      0.042966666667     0.290366666667     0.314050000000     0          
O        O      0.321333333333     0.217533333333     0.331700000000     0          
O        O      0.301433333333     0.269533333333     0.306950000000     0          
O        O      0.000000000000     0.243166666667     0.250000000000     0          
O        O      0.254800000000     0.176266666667     0.375000000000     0          
O        O      0.308100000000     0.154066666667     0.375000000000     0          
O        O      0.085933333333     0.042966666667     0.064050000000     0          
O        O      0.103800000000     0.321333333333     0.081700000000     0          
O        O      0.031900000000     0.301433333333     0.056950000000     0          
O        O      0.090166666667     0.000000000000     0.000000000000     0          
O        O      0.078533333333     0.254800000000     0.125000000000     0          
O        O      0.154033333333     0.308100000000     0.125000000000     0          
O        O      0.042966666667     0.085933333333     0.314050000000     0          
O        O      0.115800000000     0.103800000000     0.331700000000     0          
O        O      0.063800000000     0.031900000000     0.306950000000     0          
O        O      0.090166666667     0.090166666667     0.250000000000     0          
O        O      0.157066666667     0.078533333333     0.375000000000     0          
O        O      0.179266666667     0.154033333333     0.375000000000     0          
O        O      0.290366666667     0.042966666667     0.185950000000     0          
O        O      0.217533333333     0.321333333333     0.168300000000     0          
O        O      0.269533333333     0.301433333333     0.193050000000     0          
O        O      0.247400000000     0.290366666667     0.435950000000     0          
O        O      0.229533333333     0.217533333333     0.418300000000     0          
O        O      0.301433333333     0.269533333333     0.443050000000     0          
O        O      0.290366666667     0.247400000000     0.185950000000     0          
O        O      0.012000000000     0.229533333333     0.168300000000     0          
O        O      0.031900000000     0.301433333333     0.193050000000     0          
O        O      0.042966666667     0.290366666667     0.435950000000     0          
O        O      0.115800000000     0.012000000000     0.418300000000     0          
O        O      0.063800000000     0.031900000000     0.443050000000     0          
O        O      0.085933333333     0.042966666667     0.185950000000     0          
O        O      0.103800000000     0.115800000000     0.168300000000     0          
O        O      0.031900000000     0.063800000000     0.193050000000     0          
O        O      0.042966666667     0.085933333333     0.435950000000     0          
O        O      0.321333333333     0.103800000000     0.418300000000     0          
O        O      0.301433333333     0.031900000000     0.443050000000     0          
O        O      0.321333333333     0.217533333333     0.418300000000     0          
O        O      0.000000000000     0.243166666667     0.000000000000     0          
O        O      0.103800000000     0.321333333333     0.168300000000     0          
O        O      0.090166666667     0.000000000000     0.250000000000     0          
O        O      0.115800000000     0.103800000000     0.418300000000     0          
O        O      0.090166666667     0.090166666667     0.000000000000     0          
O        O      0.012000000000     0.115800000000     0.168300000000     0          
O        O      0.000000000000     0.090166666667     0.250000000000     0          
O        O      0.229533333333     0.012000000000     0.418300000000     0          
O        O      0.243166666667     0.000000000000     0.000000000000     0          
O        O      0.217533333333     0.229533333333     0.168300000000     0          
O        O      0.243166666667     0.243166666667     0.250000000000     0          
O        O      0.115800000000     0.012000000000     0.331700000000     0          
O        O      0.103800000000     0.115800000000     0.081700000000     0          
O        O      0.321333333333     0.103800000000     0.331700000000     0          
O        O      0.217533333333     0.321333333333     0.081700000000     0          
O        O      0.229533333333     0.217533333333     0.331700000000     0          
O        O      0.012000000000     0.229533333333     0.081700000000     0          
O        O      0.290366666667     0.042966666667     0.564050000000     0          
O        O      0.012000000000     0.115800000000     0.581700000000     0          
O        O      0.031900000000     0.063800000000     0.556950000000     0          
O        O      0.000000000000     0.090166666667     0.500000000000     0          
O        O      0.078533333333     0.157066666667     0.625000000000     0          
O        O      0.025233333333     0.179266666667     0.625000000000     0          
O        O      0.247400000000     0.290366666667     0.814050000000     0          
O        O      0.229533333333     0.012000000000     0.831700000000     0          
O        O      0.301433333333     0.031900000000     0.806950000000     0          
O        O      0.243166666667     0.000000000000     0.750000000000     0          
O        O      0.254800000000     0.078533333333     0.875000000000     0          
O        O      0.179300000000     0.025233333333     0.875000000000     0          
O        O      0.290366666667     0.247400000000     0.564050000000     0          
O        O      0.217533333333     0.229533333333     0.581700000000     0          
O        O      0.269533333333     0.301433333333     0.556950000000     0          
O        O      0.243166666667     0.243166666667     0.500000000000     0          
O        O      0.176266666667     0.254800000000     0.625000000000     0          
O        O      0.154066666667     0.179300000000     0.625000000000     0          
O        O      0.042966666667     0.290366666667     0.814050000000     0          
O        O      0.321333333333     0.217533333333     0.831700000000     0          
O        O      0.301433333333     0.269533333333     0.806950000000     0          
O        O      0.000000000000     0.243166666667     0.750000000000     0          
O        O      0.254800000000     0.176266666667     0.875000000000     0          
O        O      0.308100000000     0.154066666667     0.875000000000     0          
O        O      0.085933333333     0.042966666667     0.564050000000     0          
O        O      0.103800000000     0.321333333333     0.581700000000     0          
O        O      0.031900000000     0.301433333333     0.556950000000     0          
O        O      0.090166666667     0.000000000000     0.500000000000     0          
O        O      0.078533333333     0.254800000000     0.625000000000     0          
O        O      0.154033333333     0.308100000000     0.625000000000     0          
O        O      0.042966666667     0.085933333333     0.814050000000     0          
O        O      0.115800000000     0.103800000000     0.831700000000     0          
O        O      0.063800000000     0.031900000000     0.806950000000     0          
O        O      0.090166666667     0.090166666667     0.750000000000     0          
O        O      0.157066666667     0.078533333333     0.875000000000     0          
O        O      0.179266666667     0.154033333333     0.875000000000     0          
O        O      0.290366666667     0.042966666667     0.685950000000     0          
O        O      0.217533333333     0.321333333333     0.668300000000     0          
O        O      0.269533333333     0.301433333333     0.693050000000     0          
O        O      0.247400000000     0.290366666667     0.935950000000     0          
O        O      0.229533333333     0.217533333333     0.918300000000     0          
O        O      0.301433333333     0.269533333333     0.943050000000     0          
O        O      0.290366666667     0.247400000000     0.685950000000     0          
O        O      0.012000000000     0.229533333333     0.668300000000     0          
O        O      0.031900000000     0.301433333333     0.693050000000     0          
O        O      0.042966666667     0.290366666667     0.935950000000     0          
O        O      0.115800000000     0.012000000000     0.918300000000     0          
O        O      0.063800000000     0.031900000000     0.943050000000     0          
O        O      0.085933333333     0.042966666667     0.685950000000     0          
O        O      0.103800000000     0.115800000000     0.668300000000     0          
O        O      0.031900000000     0.063800000000     0.693050000000     0          
O        O      0.042966666667     0.085933333333     0.935950000000     0          
O        O      0.321333333333     0.103800000000     0.918300000000     0          
O        O      0.301433333333     0.031900000000     0.943050000000     0          
O        O      0.321333333333     0.217533333333     0.918300000000     0          
O        O      0.000000000000     0.243166666667     0.500000000000     0          
O        O      0.103800000000     0.321333333333     0.668300000000     0          
O        O      0.090166666667     0.000000000000     0.750000000000     0          
O        O      0.115800000000     0.103800000000     0.918300000000     0          
O        O      0.090166666667     0.090166666667     0.500000000000     0          
O        O      0.012000000000     0.115800000000     0.668300000000     0          
O        O      0.000000000000     0.090166666667     0.750000000000     0          
O        O      0.229533333333     0.012000000000     0.918300000000     0          
O        O      0.243166666667     0.000000000000     0.500000000000     0          
O        O      0.217533333333     0.229533333333     0.668300000000     0          
O        O      0.243166666667     0.243166666667     0.750000000000     0          
O        O      0.115800000000     0.012000000000     0.831700000000     0          
O        O      0.103800000000     0.115800000000     0.581700000000     0          
O        O      0.321333333333     0.103800000000     0.831700000000     0          
O        O      0.217533333333     0.321333333333     0.581700000000     0          
O        O      0.229533333333     0.217533333333     0.831700000000     0          
O        O      0.012000000000     0.229533333333     0.581700000000     0          
O        O      0.290366666667     0.376300000000     0.064050000000     0          
O        O      0.012000000000     0.449133333333     0.081700000000     0          
O        O      0.031900000000     0.397133333333     0.056950000000     0          
O        O      0.000000000000     0.423500000000     0.000000000000     0          
O        O      0.078533333333     0.490400000000     0.125000000000     0          
O        O      0.025233333333     0.512600000000     0.125000000000     0          
O        O      0.247400000000     0.623700000000     0.314050000000     0          
O        O      0.229533333333     0.345333333333     0.331700000000     0          
O        O      0.301433333333     0.365233333333     0.306950000000     0          
O        O      0.243166666667     0.333333333333     0.250000000000     0          
O        O      0.254800000000     0.411866666667     0.375000000000     0          
O        O      0.179300000000     0.358566666667     0.375000000000     0          
O        O      0.290366666667     0.580733333333     0.064050000000     0          
O        O      0.217533333333     0.562866666667     0.081700000000     0          
O        O      0.269533333333     0.634766666667     0.056950000000     0          
O        O      0.243166666667     0.576500000000     0.000000000000     0          
O        O      0.176266666667     0.588133333333     0.125000000000     0          
O        O      0.154066666667     0.512633333333     0.125000000000     0          
O        O      0.042966666667     0.623700000000     0.314050000000     0          
O        O      0.321333333333     0.550866666667     0.331700000000     0          
O        O      0.301433333333     0.602866666667     0.306950000000     0          
O        O      0.000000000000     0.576500000000     0.250000000000     0          
O        O      0.254800000000     0.509600000000     0.375000000000     0          
O        O      0.308100000000     0.487400000000     0.375000000000     0          
O        O      0.085933333333     0.376300000000     0.064050000000     0          
O        O      0.103800000000     0.654666666667     0.081700000000     0          
O        O      0.031900000000     0.634766666667     0.056950000000     0          
O        O      0.090166666667     0.333333333333     0.000000000000     0          
O        O      0.078533333333     0.588133333333     0.125000000000     0          
O        O      0.154033333333     0.641433333333     0.125000000000     0          
O        O      0.042966666667     0.419266666667     0.314050000000     0          
O        O      0.115800000000     0.437133333333     0.331700000000     0          
O        O      0.063800000000     0.365233333333     0.306950000000     0          
O        O      0.090166666667     0.423500000000     0.250000000000     0          
O        O      0.157066666667     0.411866666667     0.375000000000     0          
O        O      0.179266666667     0.487366666667     0.375000000000     0          
O        O      0.290366666667     0.376300000000     0.185950000000     0          
O        O      0.217533333333     0.654666666667     0.168300000000     0          
O        O      0.269533333333     0.634766666667     0.193050000000     0          
O        O      0.247400000000     0.623700000000     0.435950000000     0          
O        O      0.229533333333     0.550866666667     0.418300000000     0          
O        O      0.301433333333     0.602866666667     0.443050000000     0          
O        O      0.290366666667     0.580733333333     0.185950000000     0          
O        O      0.012000000000     0.562866666667     0.168300000000     0          
O        O      0.031900000000     0.634766666667     0.193050000000     0          
O        O      0.042966666667     0.623700000000     0.435950000000     0          
O        O      0.115800000000     0.345333333333     0.418300000000     0          
O        O      0.063800000000     0.365233333333     0.443050000000     0          
O        O      0.085933333333     0.376300000000     0.185950000000     0          
O        O      0.103800000000     0.449133333333     0.168300000000     0          
O        O      0.031900000000     0.397133333333     0.193050000000     0          
O        O      0.042966666667     0.419266666667     0.435950000000     0          
O        O      0.321333333333     0.437133333333     0.418300000000     0          
O        O      0.301433333333     0.365233333333     0.443050000000     0          
O        O      0.321333333333     0.550866666667     0.418300000000     0          
O        O      0.000000000000     0.576500000000     0.000000000000     0          
O        O      0.103800000000     0.654666666667     0.168300000000     0          
O        O      0.090166666667     0.333333333333     0.250000000000     0          
O        O      0.115800000000     0.437133333333     0.418300000000     0          
O        O      0.090166666667     0.423500000000     0.000000000000     0          
O        O      0.012000000000     0.449133333333     0.168300000000     0          
O        O      0.000000000000     0.423500000000     0.250000000000     0          
O        O      0.229533333333     0.345333333333     0.418300000000     0          
O        O      0.243166666667     0.333333333333     0.000000000000     0          
O        O      0.217533333333     0.562866666667     0.168300000000     0          
O        O      0.243166666667     0.576500000000     0.250000000000     0          
O        O      0.115800000000     0.345333333333     0.331700000000     0          
O        O      0.103800000000     0.449133333333     0.081700000000     0          
O        O      0.321333333333     0.437133333333     0.331700000000     0          
O        O      0.217533333333     0.654666666667     0.081700000000     0          
O        O      0.229533333333     0.550866666667     0.331700000000     0          
O        O      0.012000000000     0.562866666667     0.081700000000     0          
O        O      0.290366666667     0.376300000000     0.564050000000     0          
O        O      0.012000000000     0.449133333333     0.581700000000     0          
O        O      0.031900000000     0.397133333333     0.556950000000     0          
O        O      0.000000000000     0.423500000000     0.500000000000     0          
O        O      0.078533333333     0.490400000000     0.625000000000     0          
O        O      0.025233333333     0.512600000000     0.625000000000     0          
O        O      0.247400000000     0.623700000000     0.814050000000     0          
O        O      0.229533333333     0.345333333333     0.831700000000     0          
O        O      0.301433333333     0.365233333333     0.806950000000     0          
O        O      0.243166666667     0.333333333333     0.750000000000     0          
O        O      0.254800000000     0.411866666667     0.875000000000     0          
O        O      0.179300000000     0.358566666667     0.875000000000     0          
O        O      0.290366666667     0.580733333333     0.564050000000     0          
O        O      0.217533333333     0.562866666667     0.581700000000     0          
O        O      0.269533333333     0.634766666667     0.556950000000     0          
O        O      0.243166666667     0.576500000000     0.500000000000     0          
O        O      0.176266666667     0.588133333333     0.625000000000     0          
O        O      0.154066666667     0.512633333333     0.625000000000     0          
O        O      0.042966666667     0.623700000000     0.814050000000     0          
O        O      0.321333333333     0.550866666667     0.831700000000     0          
O        O      0.301433333333     0.602866666667     0.806950000000     0          
O        O      0.000000000000     0.576500000000     0.750000000000     0          
O        O      0.254800000000     0.509600000000     0.875000000000     0          
O        O      0.308100000000     0.487400000000     0.875000000000     0          
O        O      0.085933333333     0.376300000000     0.564050000000     0          
O        O      0.103800000000     0.654666666667     0.581700000000     0          
O        O      0.031900000000     0.634766666667     0.556950000000     0          
O        O      0.090166666667     0.333333333333     0.500000000000     0          
O        O      0.078533333333     0.588133333333     0.625000000000     0          
O        O      0.154033333333     0.641433333333     0.625000000000     0          
O        O      0.042966666667     0.419266666667     0.814050000000     0          
O        O      0.115800000000     0.437133333333     0.831700000000     0          
O        O      0.063800000000     0.365233333333     0.806950000000     0          
O        O      0.090166666667     0.423500000000     0.750000000000     0          
O        O      0.157066666667     0.411866666667     0.875000000000     0          
O        O      0.179266666667     0.487366666667     0.875000000000     0          
O        O      0.290366666667     0.376300000000     0.685950000000     0          
O        O      0.217533333333     0.654666666667     0.668300000000     0          
O        O      0.269533333333     0.634766666667     0.693050000000     0          
O        O      0.247400000000     0.623700000000     0.935950000000     0          
O        O      0.229533333333     0.550866666667     0.918300000000     0          
O        O      0.301433333333     0.602866666667     0.943050000000     0          
O        O      0.290366666667     0.580733333333     0.685950000000     0          
O        O      0.012000000000     0.562866666667     0.668300000000     0          
O        O      0.031900000000     0.634766666667     0.693050000000     0          
O        O      0.042966666667     0.623700000000     0.935950000000     0          
O        O      0.115800000000     0.345333333333     0.918300000000     0          
O        O      0.063800000000     0.365233333333     0.943050000000     0          
O        O      0.085933333333     0.376300000000     0.685950000000     0          
O        O      0.103800000000     0.449133333333     0.668300000000     0          
O        O      0.031900000000     0.397133333333     0.693050000000     0          
O        O      0.042966666667     0.419266666667     0.935950000000     0          
O        O      0.321333333333     0.437133333333     0.918300000000     0          
O        O      0.301433333333     0.365233333333     0.943050000000     0          
O        O      0.321333333333     0.550866666667     0.918300000000     0          
O        O      0.000000000000     0.576500000000     0.500000000000     0          
O        O      0.103800000000     0.654666666667     0.668300000000     0          
O        O      0.090166666667     0.333333333333     0.750000000000     0          
O        O      0.115800000000     0.437133333333     0.918300000000     0          
O        O      0.090166666667     0.423500000000     0.500000000000     0          
O        O      0.012000000000     0.449133333333     0.668300000000     0          
O        O      0.000000000000     0.423500000000     0.750000000000     0          
O        O      0.229533333333     0.345333333333     0.918300000000     0          
O        O      0.243166666667     0.333333333333     0.500000000000     0          
O        O      0.217533333333     0.562866666667     0.668300000000     0          
O        O      0.243166666667     0.576500000000     0.750000000000     0          
O        O      0.115800000000     0.345333333333     0.831700000000     0          
O        O      0.103800000000     0.449133333333     0.581700000000     0          
O        O      0.321333333333     0.437133333333     0.831700000000     0          
O        O      0.217533333333     0.654666666667     0.581700000000     0          
O        O      0.229533333333     0.550866666667     0.831700000000     0          
O        O      0.012000000000     0.562866666667     0.581700000000     0          
O        O      0.290366666667     0.709633333333     0.064050000000     0          
O        O      0.012000000000     0.782466666667     0.081700000000     0          
O        O      0.031900000000     0.730466666667     0.056950000000     0          
O        O      0.000000000000     0.756833333333     0.000000000000     0          
O        O      0.078533333333     0.823733333333     0.125000000000     0          
O        O      0.025233333333     0.845933333333     0.125000000000     0          
O        O      0.247400000000     0.957033333333     0.314050000000     0          
O        O      0.229533333333     0.678666666667     0.331700000000     0          
O        O      0.301433333333     0.698566666667     0.306950000000     0          
O        O      0.243166666667     0.666666666667     0.250000000000     0          
O        O      0.254800000000     0.745200000000     0.375000000000     0          
O        O      0.179300000000     0.691900000000     0.375000000000     0          
O        O      0.290366666667     0.914066666667     0.064050000000     0          
O        O      0.217533333333     0.896200000000     0.081700000000     0          
O        O      0.269533333333     0.968100000000     0.056950000000     0          
O        O      0.243166666667     0.909833333333     0.000000000000     0          
O        O      0.176266666667     0.921466666667     0.125000000000     0          
O        O      0.154066666667     0.845966666667     0.125000000000     0          
O        O      0.042966666667     0.957033333333     0.314050000000     0          
O        O      0.321333333333     0.884200000000     0.331700000000     0          
O        O      0.301433333333     0.936200000000     0.306950000000     0          
O        O      0.000000000000     0.909833333333     0.250000000000     0          
O        O      0.254800000000     0.842933333333     0.375000000000     0          
O        O      0.308100000000     0.820733333333     0.375000000000     0          
O        O      0.085933333333     0.709633333333     0.064050000000     0          
O        O      0.103800000000     0.988000000000     0.081700000000     0          
O        O      0.031900000000     0.968100000000     0.056950000000     0          
O        O      0.090166666667     0.666666666667     0.000000000000     0          
O        O      0.078533333333     0.921466666667     0.125000000000     0          
O        O      0.154033333333     0.974766666667     0.125000000000     0          
O        O      0.042966666667     0.752600000000     0.314050000000     0          
O        O      0.115800000000     0.770466666667     0.331700000000     0          
O        O      0.063800000000     0.698566666667     0.306950000000     0          
O        O      0.090166666667     0.756833333333     0.250000000000     0          
O        O      0.157066666667     0.745200000000     0.375000000000     0          
O        O      0.179266666667     0.820700000000     0.375000000000     0          
O        O      0.290366666667     0.709633333333     0.185950000000     0          
O        O      0.217533333333     0.988000000000     0.168300000000     0          
O        O      0.269533333333     0.968100000000     0.193050000000     0          
O        O      0.247400000000     0.957033333333     0.435950000000     0          
O        O      0.229533333333     0.884200000000     0.418300000000     0          
O        O      0.301433333333     0.936200000000     0.443050000000     0          
O        O      0.290366666667     0.914066666667     0.185950000000     0          
O        O      0.012000000000     0.896200000000     0.168300000000     0          
O        O      0.031900000000     0.968100000000     0.193050000000     0          
O        O      0.042966666667     0.957033333333     0.435950000000     0          
O        O      0.115800000000     0.678666666667     0.418300000000     0          
O        O      0.063800000000     0.698566666667     0.443050000000     0          
O        O      0.085933333333     0.709633333333     0.185950000000     0          
O        O      0.103800000000     0.782466666667     0.168300000000     0          
O        O      0.031900000000     0.730466666667     0.193050000000     0          
O        O      0.042966666667     0.752600000000     0.435950000000     0          
O        O      0.321333333333     0.770466666667     0.418300000000     0          
O        O      0.301433333333     0.698566666667     0.443050000000     0          
O        O      0.321333333333     0.884200000000     0.418300000000     0          
O        O      0.000000000000     0.909833333333     0.000000000000     0          
O        O      0.103800000000     0.988000000000     0.168300000000     0          
O        O      0.090166666667     0.666666666667     0.250000000000     0          
O        O      0.115800000000     0.770466666667     0.418300000000     0          
O        O      0.090166666667     0.756833333333     0.000000000000     0          
O        O      0.012000000000     0.782466666667     0.168300000000     0          
O        O      0.000000000000     0.756833333333     0.250000000000     0          
O        O      0.229533333333     0.678666666667     0.418300000000     0          
O        O      0.243166666667     0.666666666667     0.000000000000     0          
O        O      0.217533333333     0.896200000000     0.168300000000     0          
O        O      0.243166666667     0.909833333333     0.250000000000     0          
O        O      0.115800000000     0.678666666667     0.331700000000     0          
O        O      0.103800000000     0.782466666667     0.081700000000     0          
O        O      0.321333333333     0.770466666667     0.331700000000     0          
O        O      0.217533333333     0.988000000000     0.081700000000     0          
O        O      0.229533333333     0.884200000000     0.331700000000     0          
O        O      0.012000000000     0.896200000000     0.081700000000     0          
O        O      0.290366666667     0.709633333333     0.564050000000     0          
O        O      0.012000000000     0.782466666667     0.581700000000     0          
O        O      0.031900000000     0.730466666667     0.556950000000     0          
O        O      0.000000000000     0.756833333333     0.500000000000     0          
O        O      0.078533333333     0.823733333333     0.625000000000     0          
O        O      0.025233333333     0.845933333333     0.625000000000     0          
O        O      0.247400000000     0.957033333333     0.814050000000     0          
O        O      0.229533333333     0.678666666667     0.831700000000     0          
O        O      0.301433333333     0.698566666667     0.806950000000     0          
O        O      0.243166666667     0.666666666667     0.750000000000     0          
O        O      0.254800000000     0.745200000000     0.875000000000     0          
O        O      0.179300000000     0.691900000000     0.875000000000     0          
O        O      0.290366666667     0.914066666667     0.564050000000     0          
O        O      0.217533333333     0.896200000000     0.581700000000     0          
O        O      0.269533333333     0.968100000000     0.556950000000     0          
O        O      0.243166666667     0.909833333333     0.500000000000     0          
O        O      0.176266666667     0.921466666667     0.625000000000     0          
O        O      0.154066666667     0.845966666667     0.625000000000     0          
O        O      0.042966666667     0.957033333333     0.814050000000     0          
O        O      0.321333333333     0.884200000000     0.831700000000     0          
O        O      0.301433333333     0.936200000000     0.806950000000     0          
O        O      0.000000000000     0.909833333333     0.750000000000     0          
O        O      0.254800000000     0.842933333333     0.875000000000     0          
O        O      0.308100000000     0.820733333333     0.875000000000     0          
O        O      0.085933333333     0.709633333333     0.564050000000     0          
O        O      0.103800000000     0.988000000000     0.581700000000     0          
O        O      0.031900000000     0.968100000000     0.556950000000     0          
O        O      0.090166666667     0.666666666667     0.500000000000     0          
O        O      0.078533333333     0.921466666667     0.625000000000     0          
O        O      0.154033333333     0.974766666667     0.625000000000     0          
O        O      0.042966666667     0.752600000000     0.814050000000     0          
O        O      0.115800000000     0.770466666667     0.831700000000     0          
O        O      0.063800000000     0.698566666667     0.806950000000     0          
O        O      0.090166666667     0.756833333333     0.750000000000     0          
O        O      0.157066666667     0.745200000000     0.875000000000     0          
O        O      0.179266666667     0.820700000000     0.875000000000     0          
O        O      0.290366666667     0.709633333333     0.685950000000     0          
O        O      0.217533333333     0.988000000000     0.668300000000     0          
O        O      0.269533333333     0.968100000000     0.693050000000     0          
O        O      0.247400000000     0.957033333333     0.935950000000     0          
O        O      0.229533333333     0.884200000000     0.918300000000     0          
O        O      0.301433333333     0.936200000000     0.943050000000     0          
O        O      0.290366666667     0.914066666667     0.685950000000     0          
O        O      0.012000000000     0.896200000000     0.668300000000     0          
O        O      0.031900000000     0.968100000000     0.693050000000     0          
O        O      0.042966666667     0.957033333333     0.935950000000     0          
O        O      0.115800000000     0.678666666667     0.918300000000     0          
O        O      0.063800000000     0.698566666667     0.943050000000     0          
O        O      0.085933333333     0.709633333333     0.685950000000     0          
O        O      0.103800000000     0.782466666667     0.668300000000     0          
O        O      0.031900000000     0.730466666667     0.693050000000     0          
O        O      0.042966666667     0.752600000000     0.935950000000     0          
O        O      0.321333333333     0.770466666667     0.918300000000     0          
O        O      0.301433333333     0.698566666667     0.943050000000     0          
O        O      0.321333333333     0.884200000000     0.918300000000     0          
O        O      0.000000000000     0.909833333333     0.500000000000     0          
O        O      0.103800000000     0.988000000000     0.668300000000     0          
O        O      0.090166666667     0.666666666667     0.750000000000     0          
O        O      0.115800000000     0.770466666667     0.918300000000     0          
O        O      0.090166666667     0.756833333333     0.500000000000     0          
O        O      0.012000000000     0.782466666667     0.668300000000     0          
O        O      0.000000000000     0.756833333333     0.750000000000     0          
O        O      0.229533333333     0.678666666667     0.918300000000     0          
O        O      0.243166666667     0.666666666667     0.500000000000     0          
O        O      0.217533333333     0.896200000000     0.668300000000     0          
O        O      0.243166666667     0.909833333333     0.750000000000     0          
O        O      0.115800000000     0.678666666667     0.831700000000     0          
O        O      0.103800000000     0.782466666667     0.581700000000     0          
O        O      0.321333333333     0.770466666667     0.831700000000     0          
O        O      0.217533333333     0.988000000000     0.581700000000     0          
O        O      0.229533333333     0.884200000000     0.831700000000     0          
O        O      0.012000000000     0.896200000000     0.581700000000     0          
O        O      0.623700000000     0.042966666667     0.064050000000     0          
O        O      0.345333333333     0.115800000000     0.081700000000     0          
O        O      0.365233333333     0.063800000000     0.056950000000     0          
O        O      0.333333333333     0.090166666667     0.000000000000     0          
O        O      0.411866666667     0.157066666667     0.125000000000     0          
O        O      0.358566666667     0.179266666667     0.125000000000     0          
O        O      0.580733333333     0.290366666667     0.314050000000     0          
O        O      0.562866666667     0.012000000000     0.331700000000     0          
O        O      0.634766666667     0.031900000000     0.306950000000     0          
O        O      0.576500000000     0.000000000000     0.250000000000     0          
O        O      0.588133333333     0.078533333333     0.375000000000     0          
O        O      0.512633333333     0.025233333333     0.375000000000     0          
O        O      0.623700000000     0.247400000000     0.064050000000     0          
O        O      0.550866666667     0.229533333333     0.081700000000     0          
O        O      0.602866666667     0.301433333333     0.056950000000     0          
O        O      0.576500000000     0.243166666667     0.000000000000     0          
O        O      0.509600000000     0.254800000000     0.125000000000     0          
O        O      0.487400000000     0.179300000000     0.125000000000     0          
O        O      0.376300000000     0.290366666667     0.314050000000     0          
O        O      0.654666666667     0.217533333333     0.331700000000     0          
O        O      0.634766666667     0.269533333333     0.306950000000     0          
O        O      0.333333333333     0.243166666667     0.250000000000     0          
O        O      0.588133333333     0.176266666667     0.375000000000     0          
O        O      0.641433333333     0.154066666667     0.375000000000     0          
O        O      0.419266666667     0.042966666667     0.064050000000     0          
O        O      0.437133333333     0.321333333333     0.081700000000     0          
O        O      0.365233333333     0.301433333333     0.056950000000     0          
O        O      0.423500000000     0.000000000000     0.000000000000     0          
O        O      0.411866666667     0.254800000000     0.125000000000     0          
O        O      0.487366666667     0.308100000000     0.125000000000     0          
O        O      0.376300000000     0.085933333333     0.314050000000     0          
O        O      0.449133333333     0.103800000000     0.331700000000     0          
O        O      0.397133333333     0.031900000000     0.306950000000     0          
O        O      0.423500000000     0.090166666667     0.250000000000     0          
O        O      0.490400000000     0.078533333333     0.375000000000     0          
O        O      0.512600000000     0.154033333333     0.375000000000     0          
O        O      0.623700000000     0.042966666667     0.185950000000     0          
O        O      0.550866666667     0.321333333333     0.168300000000     0          
O        O      0.602866666667     0.301433333333     0.193050000000     0          
O        O      0.580733333333     0.290366666667     0.435950000000     0          
O        O      0.562866666667     0.217533333333     0.418300000000     0          
O        O      0.634766666667     0.269533333333     0.443050000000     0          
O        O      0.623700000000     0.247400000000     0.185950000000     0          
O        O      0.345333333333     0.229533333333     0.168300000000     0          
O        O      0.365233333333     0.301433333333     0.193050000000     0          
O        O      0.376300000000     0.290366666667     0.435950000000     0          
O        O      0.449133333333     0.012000000000     0.418300000000     0          
O        O      0.397133333333     0.031900000000     0.443050000000     0          
O        O      0.419266666667     0.042966666667     0.185950000000     0          
O        O      0.437133333333     0.115800000000     0.168300000000     0          
O        O      0.365233333333     0.063800000000     0.193050000000     0          
O        O      0.376300000000     0.085933333333     0.435950000000     0          
O        O      0.654666666667     0.103800000000     0.418300000000     0          
O        O      0.634766666667     0.031900000000     0.443050000000     0          
O        O      0.654666666667     0.217533333333     0.418300000000     0          
O        O      0.333333333333     0.243166666667     0.000000000000     0          
O        O      0.437133333333     0.321333333333     0.168300000000     0          
O        O      0.423500000000     0.000000000000     0.250000000000     0          
O        O      0.449133333333     0.103800000000     0.418300000000     0          
O        O      0.423500000000     0.090166666667     0.000000000000     0          
O        O      0.345333333333     0.115800000000     0.168300000000     0          
O        O      0.333333333333     0.090166666667     0.250000000000     0          
O        O      0.562866666667     0.012000000000     0.418300000000     0          
O        O      0.576500000000     0.000000000000     0.000000000000     0          
O        O      0.550866666667     0.229533333333     0.168300000000     0          
O        O      0.576500000000     0.243166666667     0.250000000000     0          
O        O      0.449133333333     0.012000000000     0.331700000000     0          
O        O      0.437133333333     0.115800000000     0.081700000000     0          
O        O      0.654666666667     0.103800000000     0.331700000000     0          
O        O      0.550866666667     0.321333333333     0.081700000000     0          
O        O      0.562866666667     0.217533333333     0.331700000000     0          
O        O      0.345333333333     0.229533333333     0.081700000000     0          
O        O      0.623700000000     0.042966666667     0.564050000000     0          
O        O      0.345333333333     0.115800000000     0.581700000000     0          
O        O      0.365233333333     0.063800000000     0.556950000000     0          
O        O      0.333333333333     0.090166666667     0.500000000000     0          
O        O      0.411866666667     0.157066666667     0.625000000000     0          
O        O      0.358566666667     0.179266666667     0.625000000000     0          
O        O      0.580733333333     0.290366666667     0.814050000000     0          
O        O      0.562866666667     0.012000000000     0.831700000000     0          
O        O      0.634766666667     0.031900000000     0.806950000000     0          
O        O      0.576500000000     0.000000000000     0.750000000000     0          
O        O      0.588133333333     0.078533333333     0.875000000000     0          
O        O      0.512633333333     0.025233333333     0.875000000000     0          
O        O      0.623700000000     0.247400000000     0.564050000000     0          
O        O      0.550866666667     0.229533333333     0.581700000000     0          
O        O      0.602866666667     0.301433333333     0.556950000000     0          
O        O      0.576500000000     0.243166666667     0.500000000000     0          
O        O      0.509600000000     0.254800000000     0.625000000000     0          
O        O      0.487400000000     0.179300000000     0.625000000000     0          
O        O      0.376300000000     0.290366666667     0.814050000000     0          
O        O      0.654666666667     0.217533333333     0.831700000000     0          
O        O      0.634766666667     0.269533333333     0.806950000000     0          
O        O      0.333333333333     0.243166666667     0.750000000000     0          
O        O      0.588133333333     0.176266666667     0.875000000000     0          
O        O      0.641433333333     0.154066666667     0.875000000000     0          
O        O      0.419266666667     0.042966666667     0.564050000000     0          
O        O      0.437133333333     0.321333333333     0.581700000000     0          
O        O      0.365233333333     0.301433333333     0.556950000000     0          
O        O      0.423500000000     0.000000000000     0.500000000000     0          
O        O      0.411866666667     0.254800000000     0.625000000000     0          
O        O      0.487366666667     0.308100000000     0.625000000000     0          
O        O      0.376300000000     0.085933333333     0.814050000000     0          
O        O      0.449133333333     0.103800000000     0.831700000000     0          
O        O      0.397133333333     0.031900000000     0.806950000000     0          
O        O      0.423500000000     0.090166666667     0.750000000000     0          
O        O      0.490400000000     0.078533333333     0.875000000000     0          
O        O      0.512600000000     0.154033333333     0.875000000000     0          
O        O      0.623700000000     0.042966666667     0.685950000000     0          
O        O      0.550866666667     0.321333333333     0.668300000000     0          
O        O      0.602866666667     0.301433333333     0.693050000000     0          
O        O      0.580733333333     0.290366666667     0.935950000000     0          
O        O      0.562866666667     0.217533333333     0.918300000000     0          
O        O      0.634766666667     0.269533333333     0.943050000000     0          
O        O      0.623700000000     0.247400000000     0.685950000000     0          
O        O      0.345333333333     0.229533333333     0.668300000000     0          
O        O      0.365233333333     0.301433333333     0.693050000000     0          
O        O      0.376300000000     0.290366666667     0.935950000000     0          
O        O      0.449133333333     0.012000000000     0.918300000000     0          
O        O      0.397133333333     0.031900000000     0.943050000000     0          
O        O      0.419266666667     0.042966666667     0.685950000000     0          
O        O      0.437133333333     0.115800000000     0.668300000000     0          
O        O      0.365233333333     0.063800000000     0.693050000000     0          
O        O      0.376300000000     0.085933333333     0.935950000000     0          
O        O      0.654666666667     0.103800000000     0.918300000000     0          
O        O      0.634766666667     0.031900000000     0.943050000000     0          
O        O      0.654666666667     0.217533333333     0.918300000000     0          
O        O      0.333333333333     0.243166666667     0.500000000000     0          
O        O      0.437133333333     0.321333333333     0.668300000000     0          
O        O      0.423500000000     0.000000000000     0.750000000000     0          
O        O      0.449133333333     0.103800000000     0.918300000000     0          
O        O      0.423500000000     0.090166666667     0.500000000000     0          
O        O      0.345333333333     0.115800000000     0.668300000000     0          
O        O      0.333333333333     0.090166666667     0.750000000000     0          
O        O      0.562866666667     0.012000000000     0.918300000000     0          
O        O      0.576500000000     0.000000000000     0.500000000000     0          
O        O      0.550866666667     0.229533333333     0.668300000000     0          
O        O      0.576500000000     0.243166666667     0.750000000000     0          
O        O      0.449133333333     0.012000000000     0.831700000000     0          
O        O      0.437133333333     0.115800000000     0.581700000000     0          
O        O      0.654666666667     0.103800000000     0.831700000000     0          
O        O      0.550866666667     0.321333333333     0.581700000000     0          
O        O      0.562866666667     0.217533333333     0.831700000000     0          
O        O      0.345333333333     0.229533333333     0.581700000000     0          
O        O      0.623700000000     0.376300000000     0.064050000000     0          
O        O      0.345333333333     0.449133333333     0.081700000000     0          
O        O      0.365233333333     0.397133333333     0.056950000000     0          
O        O      0.333333333333     0.423500000000     0.000000000000     0          
O        O      0.411866666667     0.490400000000     0.125000000000     0          
O        O      0.358566666667     0.512600000000     0.125000000000     0          
O        O      0.580733333333     0.623700000000     0.314050000000     0          
O        O      0.562866666667     0.345333333333     0.331700000000     0          
O        O      0.634766666667     0.365233333333     0.306950000000     0          
O        O      0.576500000000     0.333333333333     0.250000000000     0          
O        O      0.588133333333     0.411866666667     0.375000000000     0          
O        O      0.512633333333     0.358566666667     0.375000000000     0          
O        O      0.623700000000     0.580733333333     0.064050000000     0          
O        O      0.550866666667     0.562866666667     0.081700000000     0          
O        O      0.602866666667     0.634766666667     0.056950000000     0          
O        O      0.576500000000     0.576500000000     0.000000000000     0          
O        O      0.509600000000     0.588133333333     0.125000000000     0          
O        O      0.487400000000     0.512633333333     0.125000000000     0          
O        O      0.376300000000     0.623700000000     0.314050000000     0          
O        O      0.654666666667     0.550866666667     0.331700000000     0          
O        O      0.634766666667     0.602866666667     0.306950000000     0          
O        O      0.333333333333     0.576500000000     0.250000000000     0          
O        O      0.588133333333     0.509600000000     0.375000000000     0          
O        O      0.641433333333     0.487400000000     0.375000000000     0          
O        O      0.419266666667     0.376300000000     0.064050000000     0          
O        O      0.437133333333     0.654666666667     0.081700000000     0          
O        O      0.365233333333     0.634766666667     0.056950000000     0          
O        O      0.423500000000     0.333333333333     0.000000000000     0          
O        O      0.411866666667     0.588133333333     0.125000000000     0          
O        O      0.487366666667     0.641433333333     0.125000000000     0          
O        O      0.376300000000     0.419266666667     0.314050000000     0          
O        O      0.449133333333     0.437133333333     0.331700000000     0          
O        O      0.397133333333     0.365233333333     0.306950000000     0          
O        O      0.423500000000     0.423500000000     0.250000000000     0          
O        O      0.490400000000     0.411866666667     0.375000000000     0          
O        O      0.512600000000     0.487366666667     0.375000000000     0          
O        O      0.623700000000     0.376300000000     0.185950000000     0          
O        O      0.550866666667     0.654666666667     0.168300000000     0          
O        O      0.602866666667     0.634766666667     0.193050000000     0          
O        O      0.580733333333     0.623700000000     0.435950000000     0          
O        O      0.562866666667     0.550866666667     0.418300000000     0          
O        O      0.634766666667     0.602866666667     0.443050000000     0          
O        O      0.623700000000     0.580733333333     0.185950000000     0          
O        O      0.345333333333     0.562866666667     0.168300000000     0          
O        O      0.365233333333     0.634766666667     0.193050000000     0          
O        O      0.376300000000     0.623700000000     0.435950000000     0          
O        O      0.449133333333     0.345333333333     0.418300000000     0          
O        O      0.397133333333     0.365233333333     0.443050000000     0          
O        O      0.419266666667     0.376300000000     0.185950000000     0          
O        O      0.437133333333     0.449133333333     0.168300000000     0          
O        O      0.365233333333     0.397133333333     0.193050000000     0          
O        O      0.376300000000     0.419266666667     0.435950000000     0          
O        O      0.654666666667     0.437133333333     0.418300000000     0          
O        O      0.634766666667     0.365233333333     0.443050000000     0          
O        O      0.654666666667     0.550866666667     0.418300000000     0          
O        O      0.333333333333     0.576500000000     0.000000000000     0          
O        O      0.437133333333     0.654666666667     0.168300000000     0          
O        O      0.423500000000     0.333333333333     0.250000000000     0          
O        O      0.449133333333     0.437133333333     0.418300000000     0          
O        O      0.423500000000     0.423500000000     0.000000000000     0          
O        O      0.345333333333     0.449133333333     0.168300000000     0          
O        O      0.333333333333     0.423500000000     0.250000000000     0          
O        O      0.562866666667     0.345333333333     0.418300000000     0          
O        O      0.576500000000     0.333333333333     0.000000000000     0          
O        O      0.550866666667     0.562866666667     0.168300000000     0          
O        O      0.576500000000     0.576500000000     0.250000000000     0          
O        O      0.449133333333     0.345333333333     0.331700000000     0          
O        O      0.437133333333     0.449133333333     0.081700000000     0          
O        O      0.654666666667     0.437133333333     0.331700000000     0          
O        O      0.550866666667     0.654666666667     0.081700000000     0          
O        O      0.562866666667     0.550866666667     0.331700000000     0          
O        O      0.345333333333     0.562866666667     0.081700000000     0          
O        O      0.623700000000     0.376300000000     0.564050000000     0          
O        O      0.345333333333     0.449133333333     0.581700000000     0          
O        O      0.365233333333     0.397133333333     0.556950000000     0          
O        O      0.333333333333     0.423500000000     0.500000000000     0          
O        O      0.411866666667     0.490400000000     0.625000000000     0          
O        O      0.358566666667     0.512600000000     0.625000000000     0          
O        O      0.580733333333     0.623700000000     0.814050000000     0          
O        O      0.562866666667     0.345333333333     0.831700000000     0          
O        O      0.634766666667     0.365233333333     0.806950000000     0          
O        O      0.576500000000     0.333333333333     0.750000000000     0          
O        O      0.588133333333     0.411866666667     0.875000000000     0          
O        O      0.512633333333     0.358566666667     0.875000000000     0          
O        O      0.623700000000     0.580733333333     0.564050000000     0          
O        O      0.550866666667     0.562866666667     0.581700000000     0          
O        O      0.602866666667     0.634766666667     0.556950000000     0          
O        O      0.576500000000     0.576500000000     0.500000000000     0          
O        O      0.509600000000     0.588133333333     0.625000000000     0          
O        O      0.487400000000     0.512633333333     0.625000000000     0          
O        O      0.376300000000     0.623700000000     0.814050000000     0          
O        O      0.654666666667     0.550866666667     0.831700000000     0          
O        O      0.634766666667     0.602866666667     0.806950000000     0          
O        O      0.333333333333     0.576500000000     0.750000000000     0          
O        O      0.588133333333     0.509600000000     0.875000000000     0          
O        O      0.641433333333     0.487400000000     0.875000000000     0          
O        O      0.419266666667     0.376300000000     0.564050000000     0          
O        O      0.437133333333     0.654666666667     0.581700000000     0          
O        O      0.365233333333     0.634766666667     0.556950000000     0          
O        O      0.423500000000     0.333333333333     0.500000000000     0          
O        O      0.411866666667     0.588133333333     0.625000000000     0          
O        O      0.487366666667     0.641433333333     0.625000000000     0          
O        O      0.376300000000     0.419266666667     0.814050000000     0          
O        O      0.449133333333     0.437133333333     0.831700000000     0          
O        O      0.397133333333     0.365233333333     0.806950000000     0          
O        O      0.423500000000     0.423500000000     0.750000000000     0          
O        O      0.490400000000     0.411866666667     0.875000000000     0          
O        O      0.512600000000     0.487366666667     0.875000000000     0          
O        O      0.623700000000     0.376300000000     0.685950000000     0          
O        O      0.550866666667     0.654666666667     0.668300000000     0          
O        O      0.602866666667     0.634766666667     0.693050000000     0          
O        O      0.580733333333     0.623700000000     0.935950000000     0          
O        O      0.562866666667     0.550866666667     0.918300000000     0          
O        O      0.634766666667     0.602866666667     0.943050000000     0          
O        O      0.623700000000     0.580733333333     0.685950000000     0          
O        O      0.345333333333     0.562866666667     0.668300000000     0          
O        O      0.365233333333     0.634766666667     0.693050000000     0          
O        O      0.376300000000     0.623700000000     0.935950000000     0          
O        O      0.449133333333     0.345333333333     0.918300000000     0          
O        O      0.397133333333     0.365233333333     0.943050000000     0          
O        O      0.419266666667     0.376300000000     0.685950000000     0          
O        O      0.437133333333     0.449133333333     0.668300000000     0          
O        O      0.365233333333     0.397133333333     0.693050000000     0          
O        O      0.376300000000     0.419266666667     0.935950000000     0          
O        O      0.654666666667     0.437133333333     0.918300000000     0          
O        O      0.634766666667     0.365233333333     0.943050000000     0          
O        O      0.654666666667     0.550866666667     0.918300000000     0          
O        O      0.333333333333     0.576500000000     0.500000000000     0          
O        O      0.437133333333     0.654666666667     0.668300000000     0          
O        O      0.423500000000     0.333333333333     0.750000000000     0          
O        O      0.449133333333     0.437133333333     0.918300000000     0          
O        O      0.423500000000     0.423500000000     0.500000000000     0          
O        O      0.345333333333     0.449133333333     0.668300000000     0          
O        O      0.333333333333     0.423500000000     0.750000000000     0          
O        O      0.562866666667     0.345333333333     0.918300000000     0          
O        O      0.576500000000     0.333333333333     0.500000000000     0          
O        O      0.550866666667     0.562866666667     0.668300000000     0          
O        O      0.576500000000     0.576500000000     0.750000000000     0          
O        O      0.449133333333     0.345333333333     0.831700000000     0          
O        O      0.437133333333     0.449133333333     0.581700000000     0          
O        O      0.654666666667     0.437133333333     0.831700000000     0          
O        O      0.550866666667     0.654666666667     0.581700000000     0          
O        O      0.562866666667     0.550866666667     0.831700000000     0          
O        O      0.345333333333     0.562866666667     0.581700000000     0          
O        O      0.623700000000     0.709633333333     0.064050000000     0          
O        O      0.345333333333     0.782466666667     0.081700000000     0          
O        O      0.365233333333     0.730466666667     0.056950000000     0          
O        O      0.333333333333     0.756833333333     0.000000000000     0          
O        O      0.411866666667     0.823733333333     0.125000000000     0          
O        O      0.358566666667     0.845933333333     0.125000000000     0          
O        O      0.580733333333     0.957033333333     0.314050000000     0          
O        O      0.562866666667     0.678666666667     0.331700000000     0          
O        O      0.634766666667     0.698566666667     0.306950000000     0          
O        O      0.576500000000     0.666666666667     0.250000000000     0          
O        O      0.588133333333     0.745200000000     0.375000000000     0          
O        O      0.512633333333     0.691900000000     0.375000000000     0          
O        O      0.623700000000     0.914066666667     0.064050000000     0          
O        O      0.550866666667     0.896200000000     0.081700000000     0          
O        O      0.602866666667     0.968100000000     0.056950000000     0          
O        O      0.576500000000     0.909833333333     0.000000000000     0          
O        O      0.509600000000     0.921466666667     0.125000000000     0          
O        O      0.487400000000     0.845966666667     0.125000000000     0          
O        O      0.376300000000     0.957033333333     0.314050000000     0          
O        O      0.654666666667     0.884200000000     0.331700000000     0          
O        O      0.634766666667     0.936200000000     0.306950000000     0          
O        O      0.333333333333     0.909833333333     0.250000000000     0          
O        O      0.588133333333     0.842933333333     0.375000000000     0          
O        O      0.641433333333     0.820733333333     0.375000000000     0          
O        O      0.419266666667     0.709633333333     0.064050000000     0          
O        O      0.437133333333     0.988000000000     0.081700000000     0          
O        O      0.365233333333     0.968100000000     0.056950000000     0          
O        O      0.423500000000     0.666666666667     0.000000000000     0          
O        O      0.411866666667     0.921466666667     0.125000000000     0          
O        O      0.487366666667     0.974766666667     0.125000000000     0          
O        O      0.376300000000     0.752600000000     0.314050000000     0          
O        O      0.449133333333     0.770466666667     0.331700000000     0          
O        O      0.397133333333     0.698566666667     0.306950000000     0          
O        O      0.423500000000     0.756833333333     0.250000000000     0          
O        O      0.490400000000     0.745200000000     0.375000000000     0          
O        O      0.512600000000     0.820700000000     0.375000000000     0          
O        O      0.623700000000     0.709633333333     0.185950000000     0          
O        O      0.550866666667     0.988000000000     0.168300000000     0          
O        O      0.602866666667     0.968100000000     0.193050000000     0          
O        O      0.580733333333     0.957033333333     0.435950000000     0          
O        O      0.562866666667     0.884200000000     0.418300000000     0          
O        O      0.634766666667     0.936200000000     0.443050000000     0          
O        O      0.623700000000     0.914066666667     0.185950000000     0          
O        O      0.345333333333     0.896200000000     0.168300000000     0          
O        O      0.365233333333     0.968100000000     0.193050000000     0          
O        O      0.376300000000     0.957033333333     0.435950000000     0          
O        O      0.449133333333     0.678666666667     0.418300000000     0          
O        O      0.397133333333     0.698566666667     0.443050000000     0          
O        O      0.419266666667     0.709633333333     0.185950000000     0          
O        O      0.437133333333     0.782466666667     0.168300000000     0          
O        O      0.365233333333     0.730466666667     0.193050000000     0          
O        O      0.376300000000     0.752600000000     0.435950000000     0          
O        O      0.654666666667     0.770466666667     0.418300000000     0          
O        O      0.634766666667     0.698566666667     0.443050000000     0          
O        O      0.654666666667     0.884200000000     0.418300000000     0          
O        O      0.333333333333     0.909833333333     0.000000000000     0          
O        O      0.437133333333     0.988000000000     0.168300000000     0          
O        O      0.423500000000     0.666666666667     0.250000000000     0          
O        O      0.449133333333     0.770466666667     0.418300000000     0          
O        O      0.423500000000     0.756833333333     0.000000000000     0          
O        O      0.345333333333     0.782466666667     0.168300000000     0          
O        O      0.333333333333     0.756833333333     0.250000000000     0          
O        O      0.562866666667     0.678666666667     0.418300000000     0          
O        O      0.576500000000     0.666666666667     0.000000000000     0          
O        O      0.550866666667     0.896200000000     0.168300000000     0          
O        O      0.576500000000     0.909833333333     0.250000000000     0          
O        O      0.449133333333     0.678666666667     0.331700000000     0          
O        O      0.437133333333     0.782466666667     0.081700000000     0          
O        O      0.654666666667     0.770466666667     0.331700000000     0          
O        O      0.550866666667     0.988000000000     0.081700000000     0          
O        O      0.562866666667     0.884200000000     0.331700000000     0          
O        O      0.345333333333     0.896200000000     0.081700000000     0          
O        O      0.623700000000     0.709633333333     0.564050000000     0          
O        O      0.345333333333     0.782466666667     0.581700000000     0          
O        O      0.365233333333     0.730466666667     0.556950000000     0          
O        O      0.333333333333     0.756833333333     0.500000000000     0          
O        O      0.411866666667     0.823733333333     0.625000000000     0          
O        O      0.358566666667     0.845933333333     0.625000000000     0          
O        O      0.580733333333     0.957033333333     0.814050000000     0          
O        O      0.562866666667     0.678666666667     0.831700000000     0          
O        O      0.634766666667     0.698566666667     0.806950000000     0          
O        O      0.576500000000     0.666666666667     0.750000000000     0          
O        O      0.588133333333     0.745200000000     0.875000000000     0          
O        O      0.512633333333     0.691900000000     0.875000000000     0          
O        O      0.623700000000     0.914066666667     0.564050000000     0          
O        O      0.550866666667     0.896200000000     0.581700000000     0          
O        O      0.602866666667     0.968100000000     0.556950000000     0          
O        O      0.576500000000     0.909833333333     0.500000000000     0          
O        O      0.509600000000     0.921466666667     0.625000000000     0          
O        O      0.487400000000     0.845966666667     0.625000000000     0          
O        O      0.376300000000     0.957033333333     0.814050000000     0          
O        O      0.654666666667     0.884200000000     0.831700000000     0          
O        O      0.634766666667     0.936200000000     0.806950000000     0          
O        O      0.333333333333     0.909833333333     0.750000000000     0          
O        O      0.588133333333     0.842933333333     0.875000000000     0          
O        O      0.641433333333     0.820733333333     0.875000000000     0          
O        O      0.419266666667     0.709633333333     0.564050000000     0          
O        O      0.437133333333     0.988000000000     0.581700000000     0          
O        O      0.365233333333     0.968100000000     0.556950000000     0          
O        O      0.423500000000     0.666666666667     0.500000000000     0          
O        O      0.411866666667     0.921466666667     0.625000000000     0          
O        O      0.487366666667     0.974766666667     0.625000000000     0          
O        O      0.376300000000     0.752600000000     0.814050000000     0          
O        O      0.449133333333     0.770466666667     0.831700000000     0          
O        O      0.397133333333     0.698566666667     0.806950000000     0          
O        O      0.423500000000     0.756833333333     0.750000000000     0          
O        O      0.490400000000     0.745200000000     0.875000000000     0          
O        O      0.512600000000     0.820700000000     0.875000000000     0          
O        O      0.623700000000     0.709633333333     0.685950000000     0          
O        O      0.550866666667     0.988000000000     0.668300000000     0          
O        O      0.602866666667     0.968100000000     0.693050000000     0          
O        O      0.580733333333     0.957033333333     0.935950000000     0          
O        O      0.562866666667     0.884200000000     0.918300000000     0          
O        O      0.634766666667     0.936200000000     0.943050000000     0          
O        O      0.623700000000     0.914066666667     0.685950000000     0          
O        O      0.345333333333     0.896200000000     0.668300000000     0          
O        O      0.365233333333     0.968100000000     0.693050000000     0          
O        O      0.376300000000     0.957033333333     0.935950000000     0          
O        O      0.449133333333     0.678666666667     0.918300000000     0          
O        O      0.397133333333     0.698566666667     0.943050000000     0          
O        O      0.419266666667     0.709633333333     0.685950000000     0          
O        O      0.437133333333     0.782466666667     0.668300000000     0          
O        O      0.365233333333     0.730466666667     0.693050000000     0          
O        O      0.376300000000     0.752600000000     0.935950000000     0          
O        O      0.654666666667     0.770466666667     0.918300000000     0          
O        O      0.634766666667     0.698566666667     0.943050000000     0          
O        O      0.654666666667     0.884200000000     0.918300000000     0          
O        O      0.333333333333     0.909833333333     0.500000000000     0          
O        O      0.437133333333     0.988000000000     0.668300000000     0          
O        O      0.423500000000     0.666666666667     0.750000000000     0          
O        O      0.449133333333     0.770466666667     0.918300000000     0          
O        O      0.423500000000     0.756833333333     0.500000000000     0          
O        O      0.345333333333     0.782466666667     0.668300000000     0          
O        O      0.333333333333     0.756833333333     0.750000000000     0          
O        O      0.562866666667     0.678666666667     0.918300000000     0          
O        O      0.576500000000     0.666666666667     0.500000000000     0          
O        O      0.550866666667     0.896200000000     0.668300000000     0          
O        O      0.576500000000     0.909833333333     0.750000000000     0          
O        O      0.449133333333     0.678666666667     0.831700000000     0          
O        O      0.437133333333     0.782466666667     0.581700000000     0          
O        O      0.654666666667     0.770466666667     0.831700000000     0          
O        O      0.550866666667     0.988000000000     0.581700000000     0          
O        O      0.562866666667     0.884200000000     0.831700000000     0          
O        O      0.345333333333     0.896200000000     0.581700000000     0          
O        O      0.957033333333     0.042966666667     0.064050000000     0          
O        O      0.678666666667     0.115800000000     0.081700000000     0          
O        O      0.698566666667     0.063800000000     0.056950000000     0          
O        O      0.666666666667     0.090166666667     0.000000000000     0          
O        O      0.745200000000     0.157066666667     0.125000000000     0          
O        O      0.691900000000     0.179266666667     0.125000000000     0          
O        O      0.914066666667     0.290366666667     0.314050000000     0          
O        O      0.896200000000     0.012000000000     0.331700000000     0          
O        O      0.968100000000     0.031900000000     0.306950000000     0          
O        O      0.909833333333     0.000000000000     0.250000000000     0          
O        O      0.921466666667     0.078533333333     0.375000000000     0          
O        O      0.845966666667     0.025233333333     0.375000000000     0          
O        O      0.957033333333     0.247400000000     0.064050000000     0          
O        O      0.884200000000     0.229533333333     0.081700000000     0          
O        O      0.936200000000     0.301433333333     0.056950000000     0          
O        O      0.909833333333     0.243166666667     0.000000000000     0          
O        O      0.842933333333     0.254800000000     0.125000000000     0          
O        O      0.820733333333     0.179300000000     0.125000000000     0          
O        O      0.709633333333     0.290366666667     0.314050000000     0          
O        O      0.988000000000     0.217533333333     0.331700000000     0          
O        O      0.968100000000     0.269533333333     0.306950000000     0          
O        O      0.666666666667     0.243166666667     0.250000000000     0          
O        O      0.921466666667     0.176266666667     0.375000000000     0          
O        O      0.974766666667     0.154066666667     0.375000000000     0          
O        O      0.752600000000     0.042966666667     0.064050000000     0          
O        O      0.770466666667     0.321333333333     0.081700000000     0          
O        O      0.698566666667     0.301433333333     0.056950000000     0          
O        O      0.756833333333     0.000000000000     0.000000000000     0          
O        O      0.745200000000     0.254800000000     0.125000000000     0          
O        O      0.820700000000     0.308100000000     0.125000000000     0          
O        O      0.709633333333     0.085933333333     0.314050000000     0          
O        O      0.782466666667     0.103800000000     0.331700000000     0          
O        O      0.730466666667     0.031900000000     0.306950000000     0          
O        O      0.756833333333     0.090166666667     0.250000000000     0          
O        O      0.823733333333     0.078533333333     0.375000000000     0          
O        O      0.845933333333     0.154033333333     0.375000000000     0          
O        O      0.957033333333     0.042966666667     0.185950000000     0          
O        O      0.884200000000     0.321333333333     0.168300000000     0          
O        O      0.936200000000     0.301433333333     0.193050000000     0          
O        O      0.914066666667     0.290366666667     0.435950000000     0          
O        O      0.896200000000     0.217533333333     0.418300000000     0          
O        O      0.968100000000     0.269533333333     0.443050000000     0          
O        O      0.957033333333     0.247400000000     0.185950000000     0          
O        O      0.678666666667     0.229533333333     0.168300000000     0          
O        O      0.698566666667     0.301433333333     0.193050000000     0          
O        O      0.709633333333     0.290366666667     0.435950000000     0          
O        O      0.782466666667     0.012000000000     0.418300000000     0          
O        O      0.730466666667     0.031900000000     0.443050000000     0          
O        O      0.752600000000     0.042966666667     0.185950000000     0          
O        O      0.770466666667     0.115800000000     0.168300000000     0          
O        O      0.698566666667     0.063800000000     0.193050000000     0          
O        O      0.709633333333     0.085933333333     0.435950000000     0          
O        O      0.988000000000     0.103800000000     0.418300000000     0          
O        O      0.968100000000     0.031900000000     0.443050000000     0          
O        O      0.988000000000     0.217533333333     0.418300000000     0          
O        O      0.666666666667     0.243166666667     0.000000000000     0          
O        O      0.770466666667     0.321333333333     0.168300000000     0          
O        O      0.756833333333     0.000000000000     0.250000000000     0          
O        O      0.782466666667     0.103800000000     0.418300000000     0          
O        O      0.756833333333     0.090166666667     0.000000000000     0          
O        O      0.678666666667     0.115800000000     0.168300000000     0          
O        O      0.666666666667     0.090166666667     0.250000000000     0          
O        O      0.896200000000     0.012000000000     0.418300000000     0          
O        O      0.909833333333     0.000000000000     0.000000000000     0          
O        O      0.884200000000     0.229533333333     0.168300000000     0          
O        O      0.909833333333     0.243166666667     0.250000000000     0          
O        O      0.782466666667     0.012000000000     0.331700000000     0          
O        O      0.770466666667     0.115800000000     0.081700000000     0          
O        O      0.988000000000     0.103800000000     0.331700000000     0          
O        O      0.884200000000     0.321333333333     0.081700000000     0          
O        O      0.896200000000     0.217533333333     0.331700000000     0          
O        O      0.678666666667     0.229533333333     0.081700000000     0          
O        O      0.957033333333     0.042966666667     0.564050000000     0          
O        O      0.678666666667     0.115800000000     0.581700000000     0          
O        O      0.698566666667     0.063800000000     0.556950000000     0          
O        O      0.666666666667     0.090166666667     0.500000000000     0          
O        O      0.745200000000     0.157066666667     0.625000000000     0          
O        O      0.691900000000     0.179266666667     0.625000000000     0          
O        O      0.914066666667     0.290366666667     0.814050000000     0          
O        O      0.896200000000     0.012000000000     0.831700000000     0          
O        O      0.968100000000     0.031900000000     0.806950000000     0          
O        O      0.909833333333     0.000000000000     0.750000000000     0          
O        O      0.921466666667     0.078533333333     0.875000000000     0          
O        O      0.845966666667     0.025233333333     0.875000000000     0          
O        O      0.957033333333     0.247400000000     0.564050000000     0          
O        O      0.884200000000     0.229533333333     0.581700000000     0          
O        O      0.936200000000     0.301433333333     0.556950000000     0          
O        O      0.909833333333     0.243166666667     0.500000000000     0          
O        O      0.842933333333     0.254800000000     0.625000000000     0          
O        O      0.820733333333     0.179300000000     0.625000000000     0          
O        O      0.709633333333     0.290366666667     0.814050000000     0          
O        O      0.988000000000     0.217533333333     0.831700000000     0          
O        O      0.968100000000     0.269533333333     0.806950000000     0          
O        O      0.666666666667     0.243166666667     0.750000000000     0          
O        O      0.921466666667     0.176266666667     0.875000000000     0          
O        O      0.974766666667     0.154066666667     0.875000000000     0          
O        O      0.752600000000     0.042966666667     0.564050000000     0          
O        O      0.770466666667     0.321333333333     0.581700000000     0          
O        O      0.698566666667     0.301433333333     0.556950000000     0          
O        O      0.756833333333     0.000000000000     0.500000000000     0          
O        O      0.745200000000     0.254800000000     0.625000000000     0          
O        O      0.820700000000     0.308100000000     0.625000000000     0          
O        O      0.709633333333     0.085933333333     0.814050000000     0          
O        O      0.782466666667     0.103800000000     0.831700000000     0          
O        O      0.730466666667     0.031900000000     0.806950000000     0          
O        O      0.756833333333     0.090166666667     0.750000000000     0          
O        O      0.823733333333     0.078533333333     0.875000000000     0          
O        O      0.845933333333     0.154033333333     0.875000000000     0          
O        O      0.957033333333     0.042966666667     0.685950000000     0          
O        O      0.884200000000     0.321333333333     0.668300000000     0          
O        O      0.936200000000     0.301433333333     0.693050000000     0          
O        O      0.914066666667     0.290366666667     0.935950000000     0          
O        O      0.896200000000     0.217533333333     0.918300000000     0          
O        O      0.968100000000     0.269533333333     0.943050000000     0          
O        O      0.957033333333     0.247400000000     0.685950000000     0          
O        O      0.678666666667     0.229533333333     0.668300000000     0          
O        O      0.698566666667     0.301433333333     0.693050000000     0          
O        O      0.709633333333     0.290366666667     0.935950000000     0          
O        O      0.782466666667     0.012000000000     0.918300000000     0          
O        O      0.730466666667     0.031900000000     0.943050000000     0          
O        O      0.752600000000     0.042966666667     0.685950000000     0          
O        O      0.770466666667     0.115800000000     0.668300000000     0          
O        O      0.698566666667     0.063800000000     0.693050000000     0          
O        O      0.709633333333     0.085933333333     0.935950000000     0          
O        O      0.988000000000     0.103800000000     0.918300000000     0          
O        O      0.968100000000     0.031900000000     0.943050000000     0          
O        O      0.988000000000     0.217533333333     0.918300000000     0          
O        O      0.666666666667     0.243166666667     0.500000000000     0          
O        O      0.770466666667     0.321333333333     0.668300000000     0          
O        O      0.756833333333     0.000000000000     0.750000000000     0          
O        O      0.782466666667     0.103800000000     0.918300000000     0          
O        O      0.756833333333     0.090166666667     0.500000000000     0          
O        O      0.678666666667     0.115800000000     0.668300000000     0          
O        O      0.666666666667     0.090166666667     0.750000000000     0          
O        O      0.896200000000     0.012000000000     0.918300000000     0          
O        O      0.909833333333     0.000000000000     0.500000000000     0          
O        O      0.884200000000     0.229533333333     0.668300000000     0          
O        O      0.909833333333     0.243166666667     0.750000000000     0          
O        O      0.782466666667     0.012000000000     0.831700000000     0          
O        O      0.770466666667     0.115800000000     0.581700000000     0          
O        O      0.988000000000     0.103800000000     0.831700000000     0          
O        O      0.884200000000     0.321333333333     0.581700000000     0          
O        O      0.896200000000     0.217533333333     0.831700000000     0          
O        O      0.678666666667     0.229533333333     0.581700000000     0          
O        O      0.957033333333     0.376300000000     0.064050000000     0          
O        O      0.678666666667     0.449133333333     0.081700000000     0          
O        O      0.698566666667     0.397133333333     0.056950000000     0          
O        O      0.666666666667     0.423500000000     0.000000000000     0          
O        O      0.745200000000     0.490400000000     0.125000000000     0          
O        O      0.691900000000     0.512600000000     0.125000000000     0          
O        O      0.914066666667     0.623700000000     0.314050000000     0          
O        O      0.896200000000     0.345333333333     0.331700000000     0          
O        O      0.968100000000     0.365233333333     0.306950000000     0          
O        O      0.909833333333     0.333333333333     0.250000000000     0          
O        O      0.921466666667     0.411866666667     0.375000000000     0          
O        O      0.845966666667     0.358566666667     0.375000000000     0          
O        O      0.957033333333     0.580733333333     0.064050000000     0          
O        O      0.884200000000     0.562866666667     0.081700000000     0          
O        O      0.936200000000     0.634766666667     0.056950000000     0          
O        O      0.909833333333     0.576500000000     0.000000000000     0          
O        O      0.842933333333     0.588133333333     0.125000000000     0          
O        O      0.820733333333     0.512633333333     0.125000000000     0          
O        O      0.709633333333     0.623700000000     0.314050000000     0          
O        O      0.988000000000     0.550866666667     0.331700000000     0          
O        O      0.968100000000     0.602866666667     0.306950000000     0          
O        O      0.666666666667     0.576500000000     0.250000000000     0          
O        O      0.921466666667     0.509600000000     0.375000000000     0          
O        O      0.974766666667     0.487400000000     0.375000000000     0          
O        O      0.752600000000     0.376300000000     0.064050000000     0          
O        O      0.770466666667     0.654666666667     0.081700000000     0          
O        O      0.698566666667     0.634766666667     0.056950000000     0          
O        O      0.756833333333     0.333333333333     0.000000000000     0          
O        O      0.745200000000     0.588133333333     0.125000000000     0          
O        O      0.820700000000     0.641433333333     0.125000000000     0          
O        O      0.709633333333     0.419266666667     0.314050000000     0          
O        O      0.782466666667     0.437133333333     0.331700000000     0          
O        O      0.730466666667     0.365233333333     0.306950000000     0          
O        O      0.756833333333     0.423500000000     0.250000000000     0          
O        O      0.823733333333     0.411866666667     0.375000000000     0          
O        O      0.845933333333     0.487366666667     0.375000000000     0          
O        O      0.957033333333     0.376300000000     0.185950000000     0          
O        O      0.884200000000     0.654666666667     0.168300000000     0          
O        O      0.936200000000     0.634766666667     0.193050000000     0          
O        O      0.914066666667     0.623700000000     0.435950000000     0          
O        O      0.896200000000     0.550866666667     0.418300000000     0          
O        O      0.968100000000     0.602866666667     0.443050000000     0          
O        O      0.957033333333     0.580733333333     0.185950000000     0          
O        O      0.678666666667     0.562866666667     0.168300000000     0          
O        O      0.698566666667     0.634766666667     0.193050000000     0          
O        O      0.709633333333     0.623700000000     0.435950000000     0          
O        O      0.782466666667     0.345333333333     0.418300000000     0          
O        O      0.730466666667     0.365233333333     0.443050000000     0          
O        O      0.752600000000     0.376300000000     0.185950000000     0          
O        O      0.770466666667     0.449133333333     0.168300000000     0          
O        O      0.698566666667     0.397133333333     0.193050000000     0          
O        O      0.709633333333     0.419266666667     0.435950000000     0          
O        O      0.988000000000     0.437133333333     0.418300000000     0          
O        O      0.968100000000     0.365233333333     0.443050000000     0          
O        O      0.988000000000     0.550866666667     0.418300000000     0          
O        O      0.666666666667     0.576500000000     0.000000000000     0          
O        O      0.770466666667     0.654666666667     0.168300000000     0          
O        O      0.756833333333     0.333333333333     0.250000000000     0          
O        O      0.782466666667     0.437133333333     0.418300000000     0          
O        O      0.756833333333     0.423500000000     0.000000000000     0          
O        O      0.678666666667     0.449133333333     0.168300000000     0          
O        O      0.666666666667     0.423500000000     0.250000000000     0          
O        O      0.896200000000     0.345333333333     0.418300000000     0          
O        O      0.909833333333     0.333333333333     0.000000000000     0          
O        O      0.884200000000     0.562866666667     0.168300000000     0          
O        O      0.909833333333     0.576500000000     0.250000000000     0          
O        O      0.782466666667     0.345333333333     0.331700000000     0          
O        O      0.770466666667     0.449133333333     0.081700000000     0          
O        O      0.988000000000     0.437133333333     0.331700000000     0          
O        O      0.884200000000     0.654666666667     0.081700000000     0          
O        O      0.896200000000     0.550866666667     0.331700000000     0          
O        O      0.678666666667     0.562866666667     0.081700000000     0          
O        O      0.957033333333     0.376300000000     0.564050000000     0          
O        O      0.678666666667     0.449133333333     0.581700000000     0          
O        O      0.698566666667     0.397133333333     0.556950000000     0          
O        O      0.666666666667     0.423500000000     0.500000000000     0          
O        O      0.745200000000     0.490400000000     0.625000000000     0          
O        O      0.691900000000     0.512600000000     0.625000000000     0          
O        O      0.914066666667     0.623700000000     0.814050000000     0          
O        O      0.896200000000     0.345333333333     0.831700000000     0          
O        O      0.968100000000     0.365233333333     0.806950000000     0          
O        O      0.909833333333     0.333333333333     0.750000000000     0          
O        O      0.921466666667     0.411866666667     0.875000000000     0          
O        O      0.845966666667     0.358566666667     0.875000000000     0          
O        O      0.957033333333     0.580733333333     0.564050000000     0          
O        O      0.884200000000     0.562866666667     0.581700000000     0          
O        O      0.936200000000     0.634766666667     0.556950000000     0          
O        O      0.909833333333     0.576500000000     0.500000000000     0          
O        O      0.842933333333     0.588133333333     0.625000000000     0          
O        O      0.820733333333     0.512633333333     0.625000000000     0          
O        O      0.709633333333     0.623700000000     0.814050000000     0          
O        O      0.988000000000     0.550866666667     0.831700000000     0          
O        O      0.968100000000     0.602866666667     0.806950000000     0          
O        O      0.666666666667     0.576500000000     0.750000000000     0          
O        O      0.921466666667     0.509600000000     0.875000000000     0          
O        O      0.974766666667     0.487400000000     0.875000000000     0          
O        O      0.752600000000     0.376300000000     0.564050000000     0          
O        O      0.770466666667     0.654666666667     0.581700000000     0          
O        O      0.698566666667     0.634766666667     0.556950000000     0          
O        O      0.756833333333     0.333333333333     0.500000000000     0          
O        O      0.745200000000     0.588133333333     0.625000000000     0          
O        O      0.820700000000     0.641433333333     0.625000000000     0          
O        O      0.709633333333     0.419266666667     0.814050000000     0          
O        O      0.782466666667     0.437133333333     0.831700000000     0          
O        O      0.730466666667     0.365233333333     0.806950000000     0          
O        O      0.756833333333     0.423500000000     0.750000000000     0          
O        O      0.823733333333     0.411866666667     0.875000000000     0          
O        O      0.845933333333     0.487366666667     0.875000000000     0          
O        O      0.957033333333     0.376300000000     0.685950000000     0          
O        O      0.884200000000     0.654666666667     0.668300000000     0          
O        O      0.936200000000     0.634766666667     0.693050000000     0          
O        O      0.914066666667     0.623700000000     0.935950000000     0          
O        O      0.896200000000     0.550866666667     0.918300000000     0          
O        O      0.968100000000     0.602866666667     0.943050000000     0          
O        O      0.957033333333     0.580733333333     0.685950000000     0          
O        O      0.678666666667     0.562866666667     0.668300000000     0          
O        O      0.698566666667     0.634766666667     0.693050000000     0          
O        O      0.709633333333     0.623700000000     0.935950000000     0          
O        O      0.782466666667     0.345333333333     0.918300000000     0          
O        O      0.730466666667     0.365233333333     0.943050000000     0          
O        O      0.752600000000     0.376300000000     0.685950000000     0          
O        O      0.770466666667     0.449133333333     0.668300000000     0          
O        O      0.698566666667     0.397133333333     0.693050000000     0          
O        O      0.709633333333     0.419266666667     0.935950000000     0          
O        O      0.988000000000     0.437133333333     0.918300000000     0          
O        O      0.968100000000     0.365233333333     0.943050000000     0          
O        O      0.988000000000     0.550866666667     0.918300000000     0          
O        O      0.666666666667     0.576500000000     0.500000000000     0          
O        O      0.770466666667     0.654666666667     0.668300000000     0          
O        O      0.756833333333     0.333333333333     0.750000000000     0          
O        O      0.782466666667     0.437133333333     0.918300000000     0          
O        O      0.756833333333     0.423500000000     0.500000000000     0          
O        O      0.678666666667     0.449133333333     0.668300000000     0          
O        O      0.666666666667     0.423500000000     0.750000000000     0          
O        O      0.896200000000     0.345333333333     0.918300000000     0          
O        O      0.909833333333     0.333333333333     0.500000000000     0          
O        O      0.884200000000     0.562866666667     0.668300000000     0          
O        O      0.909833333333     0.576500000000     0.750000000000     0          
O        O      0.782466666667     0.345333333333     0.831700000000     0          
O        O      0.770466666667     0.449133333333     0.581700000000     0          
O        O      0.988000000000     0.437133333333     0.831700000000     0          
O        O      0.884200000000     0.654666666667     0.581700000000     0          
O        O      0.896200000000     0.550866666667     0.831700000000     0          
O        O      0.678666666667     0.562866666667     0.581700000000     0          
O        O      0.957033333333     0.709633333333     0.064050000000     0          
O        O      0.678666666667     0.782466666667     0.081700000000     0          
O        O      0.698566666667     0.730466666667     0.056950000000     0          
O        O      0.666666666667     0.756833333333     0.000000000000     0          
O        O      0.745200000000     0.823733333333     0.125000000000     0          
O        O      0.691900000000     0.845933333333     0.125000000000     0          
O        O      0.914066666667     0.957033333333     0.314050000000     0          
O        O      0.896200000000     0.678666666667     0.331700000000     0          
O        O      0.968100000000     0.698566666667     0.306950000000     0          
O        O      0.909833333333     0.666666666667     0.250000000000     0          
O        O      0.921466666667     0.745200000000     0.375000000000     0          
O        O      0.845966666667     0.691900000000     0.375000000000     0          
O        O      0.957033333333     0.914066666667     0.064050000000     0          
O        O      0.884200000000     0.896200000000     0.081700000000     0          
O        O      0.936200000000     0.968100000000     0.056950000000     0          
O        O      0.909833333333     0.909833333333     0.000000000000     0          
O        O      0.842933333333     0.921466666667     0.125000000000     0          
O        O      0.820733333333     0.845966666667     0.125000000000     0          
O        O      0.709633333333     0.957033333333     0.314050000000     0          
O        O      0.988000000000     0.884200000000     0.331700000000     0          
O        O      0.968100000000     0.936200000000     0.306950000000     0          
O        O      0.666666666667     0.909833333333     0.250000000000     0          
O        O      0.921466666667     0.842933333333     0.375000000000     0          
O        O      0.974766666667     0.820733333333     0.375000000000     0          
O        O      0.752600000000     0.709633333333     0.064050000000     0          
O        O      0.770466666667     0.988000000000     0.081700000000     0          
O        O      0.698566666667     0.968100000000     0.056950000000     0          
O        O      0.756833333333     0.666666666667     0.000000000000     0          
O        O      0.745200000000     0.921466666667     0.125000000000     0          
O        O      0.820700000000     0.974766666667     0.125000000000     0          
O        O      0.709633333333     0.752600000000     0.314050000000     0          
O        O      0.782466666667     0.770466666667     0.331700000000     0          
O        O      0.730466666667     0.698566666667     0.306950000000     0          
O        O      0.756833333333     0.756833333333     0.250000000000     0          
O        O      0.823733333333     0.745200000000     0.375000000000     0          
O        O      0.845933333333     0.820700000000     0.375000000000     0          
O        O      0.957033333333     0.709633333333     0.185950000000     0          
O        O      0.884200000000     0.988000000000     0.168300000000     0          
O        O      0.936200000000     0.968100000000     0.193050000000     0          
O        O      0.914066666667     0.957033333333     0.435950000000     0          
O        O      0.896200000000     0.884200000000     0.418300000000     0          
O        O      0.968100000000     0.936200000000     0.443050000000     0          
O        O      0.957033333333     0.914066666667     0.185950000000     0          
O        O      0.678666666667     0.896200000000     0.168300000000     0          
O        O      0.698566666667     0.968100000000     0.193050000000     0          
O        O      0.709633333333     0.957033333333     0.435950000000     0          
O        O      0.782466666667     0.678666666667     0.418300000000     0          
O        O      0.730466666667     0.698566666667     0.443050000000     0          
O        O      0.752600000000     0.709633333333     0.185950000000     0          
O        O      0.770466666667     0.782466666667     0.168300000000     0          
O        O      0.698566666667     0.730466666667     0.193050000000     0          
O        O      0.709633333333     0.752600000000     0.435950000000     0          
O        O      0.988000000000     0.770466666667     0.418300000000     0          
O        O      0.968100000000     0.698566666667     0.443050000000     0          
O        O      0.988000000000     0.884200000000     0.418300000000     0          
O        O      0.666666666667     0.909833333333     0.000000000000     0          
O        O      0.770466666667     0.988000000000     0.168300000000     0          
O        O      0.756833333333     0.666666666667     0.250000000000     0          
O        O      0.782466666667     0.770466666667     0.418300000000     0          
O        O      0.756833333333     0.756833333333     0.000000000000     0          
O        O      0.678666666667     0.782466666667     0.168300000000     0          
O        O      0.666666666667     0.756833333333     0.250000000000     0          
O        O      0.896200000000     0.678666666667     0.418300000000     0          
O        O      0.909833333333     0.666666666667     0.000000000000     0          
O        O      0.884200000000     0.896200000000     0.168300000000     0          
O        O      0.909833333333     0.909833333333     0.250000000000     0          
O        O      0.782466666667     0.678666666667     0.331700000000     0          
O        O      0.770466666667     0.782466666667     0.081700000000     0          
O        O      0.988000000000     0.770466666667     0.331700000000     0          
O        O      0.884200000000     0.988000000000     0.081700000000     0          
O        O      0.896200000000     0.884200000000     0.331700000000     0          
O        O      0.678666666667     0.896200000000     0.081700000000     0          
O        O      0.957033333333     0.709633333333     0.564050000000     0          
O        O      0.678666666667     0.782466666667     0.581700000000     0          
O        O      0.698566666667     0.730466666667     0.556950000000     0          
O        O      0.666666666667     0.756833333333     0.500000000000     0          
O        O      0.745200000000     0.823733333333     0.625000000000     0          
O        O      0.691900000000     0.845933333333     0.625000000000     0          
O        O      0.914066666667     0.957033333333     0.814050000000     0          
O        O      0.896200000000     0.678666666667     0.831700000000     0          
O        O      0.968100000000     0.698566666667     0.806950000000     0          
O        O      0.909833333333     0.666666666667     0.750000000000     0          
O        O      0.921466666667     0.745200000000     0.875000000000     0          
O        O      0.845966666667     0.691900000000     0.875000000000     0          
O        O      0.957033333333     0.914066666667     0.564050000000     0          
O        O      0.884200000000     0.896200000000     0.581700000000     0          
O        O      0.936200000000     0.968100000000     0.556950000000     0          
O        O      0.909833333333     0.909833333333     0.500000000000     0          
O        O      0.842933333333     0.921466666667     0.625000000000     0          
O        O      0.820733333333     0.845966666667     0.625000000000     0          
O        O      0.709633333333     0.957033333333     0.814050000000     0          
O        O      0.988000000000     0.884200000000     0.831700000000     0          
O        O      0.968100000000     0.936200000000     0.806950000000     0          
O        O      0.666666666667     0.909833333333     0.750000000000     0          
O        O      0.921466666667     0.842933333333     0.875000000000     0          
O        O      0.974766666667     0.820733333333     0.875000000000     0          
O        O      0.752600000000     0.709633333333     0.564050000000     0          
O        O      0.770466666667     0.988000000000     0.581700000000     0          
O        O      0.698566666667     0.968100000000     0.556950000000     0          
O        O      0.756833333333     0.666666666667     0.500000000000     0          
O        O      0.745200000000     0.921466666667     0.625000000000     0          
O        O      0.820700000000     0.974766666667     0.625000000000     0          
O        O      0.709633333333     0.752600000000     0.814050000000     0          
O        O      0.782466666667     0.770466666667     0.831700000000     0          
O        O      0.730466666667     0.698566666667     0.806950000000     0          
O        O      0.756833333333     0.756833333333     0.750000000000     0          
O        O      0.823733333333     0.745200000000     0.875000000000     0          
O        O      0.845933333333     0.820700000000     0.875000000000     0          
O        O      0.957033333333     0.709633333333     0.685950000000     0          
O        O      0.884200000000     0.988000000000     0.668300000000     0          
O        O      0.936200000000     0.968100000000     0.693050000000     0          
O        O      0.914066666667     0.957033333333     0.935950000000     0          
O        O      0.896200000000     0.884200000000     0.918300000000     0          
O        O      0.968100000000     0.936200000000     0.943050000000     0          
O        O      0.957033333333     0.914066666667     0.685950000000     0          
O        O      0.678666666667     0.896200000000     0.668300000000     0          
O        O      0.698566666667     0.968100000000     0.693050000000     0          
O        O      0.709633333333     0.957033333333     0.935950000000     0          
O        O      0.782466666667     0.678666666667     0.918300000000     0          
O        O      0.730466666667     0.698566666667     0.943050000000     0          
O        O      0.752600000000     0.709633333333     0.685950000000     0          
O        O      0.770466666667     0.782466666667     0.668300000000     0          
O        O      0.698566666667     0.730466666667     0.693050000000     0          
O        O      0.709633333333     0.752600000000     0.935950000000     0          
O        O      0.988000000000     0.770466666667     0.918300000000     0          
O        O      0.968100000000     0.698566666667     0.943050000000     0          
O        O      0.988000000000     0.884200000000     0.918300000000     0          
O        O      0.666666666667     0.909833333333     0.500000000000     0          
O        O      0.770466666667     0.988000000000     0.668300000000     0          
O        O      0.756833333333     0.666666666667     0.750000000000     0          
O        O      0.782466666667     0.770466666667     0.918300000000     0          
O        O      0.756833333333     0.756833333333     0.500000000000     0          
O        O      0.678666666667     0.782466666667     0.668300000000     0          
O        O      0.666666666667     0.756833333333     0.750000000000     0          
O        O      0.896200000000     0.678666666667     0.918300000000     0          
O        O      0.909833333333     0.666666666667     0.500000000000     0          
O        O      0.884200000000     0.896200000000     0.668300000000     0          
O        O      0.909833333333     0.909833333333     0.750000000000     0          
O        O      0.782466666667     0.678666666667     0.831700000000     0          
O        O      0.770466666667     0.782466666667     0.581700000000     0          
O        O      0.988000000000     0.770466666667     0.831700000000     0          
O        O      0.884200000000     0.988000000000     0.581700000000     0          
O        O      0.896200000000     0.884200000000     0.831700000000     0          
O        O      0.678666666667     0.896200000000     0.581700000000     0          


