data_zeolite

_audit_creation_method RASPA-1.0
_audit_creation_date 2021-6-6
_audit_author_name ''

_cell_length_a    28.258
_cell_length_b    26.265
_cell_length_c    26.784
_cell_angle_alpha 90
_cell_angle_beta  105.368
_cell_angle_gamma 90
_cell_volume      19168.2

_symmetry_cell_setting          monoclinic
_symmetry_space_group_name_Hall 'P 1'
_symmetry_space_group_name_H-M  'P 1'
_symmetry_Int_Tables_number     1

_symmetry_equiv_pos_as_xyz 'x,y,z'

loop_
_atom_site_label
_atom_site_type_symbol
_atom_site_fract_x
_atom_site_fract_y
_atom_site_fract_z
_atom_site_charge
O        O      0.337600000000     0.000000000000     0.065366666667     0          
O        O      0.265550000000     0.050000000000     0.087866666667     0          
O        O      0.250000000000     0.000000000000     0.000000000000     0          
O        O      0.000000000000     0.000000000000     0.166666666667     0          
O        O      0.067250000000     0.000000000000     0.255600000000     0          
O        O      0.125000000000     0.050000000000     0.000000000000     0          
T        Si     0.279500000000     0.000000000000     0.060166666667     0          
T        Si     0.009200000000     0.000000000000     0.228500000000     0          
T        Si     0.119800000000     0.000000000000     0.297733333333     0          
O        O      0.162400000000     0.000000000000     0.267966666667     0          
O        O      0.234450000000     0.050000000000     0.245466666667     0          
O        O      0.432750000000     0.000000000000     0.077733333333     0          
O        O      0.375000000000     0.050000000000     0.000000000000     0          
T        Si     0.220500000000     0.000000000000     0.273166666667     0          
T        Si     0.490800000000     0.000000000000     0.104833333333     0          
T        Si     0.380200000000     0.000000000000     0.035600000000     0          
O        O      0.234450000000     0.150000000000     0.245466666667     0          
O        O      0.375000000000     0.150000000000     0.000000000000     0          
O        O      0.265550000000     0.150000000000     0.087866666667     0          
O        O      0.125000000000     0.150000000000     0.000000000000     0          
O        O      0.087600000000     0.100000000000     0.065366666667     0          
O        O      0.015550000000     0.150000000000     0.087866666667     0          
O        O      0.000000000000     0.100000000000     0.000000000000     0          
O        O      0.250000000000     0.100000000000     0.166666666667     0          
O        O      0.317250000000     0.100000000000     0.255600000000     0          
T        Si     0.029500000000     0.100000000000     0.060166666667     0          
T        Si     0.259200000000     0.100000000000     0.228500000000     0          
T        Si     0.369800000000     0.100000000000     0.297733333333     0          
O        O      0.412400000000     0.100000000000     0.267966666667     0          
O        O      0.484450000000     0.150000000000     0.245466666667     0          
O        O      0.182750000000     0.100000000000     0.077733333333     0          
T        Si     0.470500000000     0.100000000000     0.273166666667     0          
T        Si     0.240800000000     0.100000000000     0.104833333333     0          
T        Si     0.130200000000     0.100000000000     0.035600000000     0          
O        O      0.484450000000     0.050000000000     0.245466666667     0          
O        O      0.015550000000     0.050000000000     0.087866666667     0          
O        O      0.337600000000     0.000000000000     0.398700000000     0          
O        O      0.265550000000     0.050000000000     0.421200000000     0          
O        O      0.250000000000     0.000000000000     0.333333333333     0          
O        O      0.000000000000     0.000000000000     0.500000000000     0          
O        O      0.067250000000     0.000000000000     0.588933333333     0          
O        O      0.125000000000     0.050000000000     0.333333333333     0          
T        Si     0.279500000000     0.000000000000     0.393500000000     0          
T        Si     0.009200000000     0.000000000000     0.561833333333     0          
T        Si     0.119800000000     0.000000000000     0.631066666667     0          
O        O      0.162400000000     0.000000000000     0.601300000000     0          
O        O      0.234450000000     0.050000000000     0.578800000000     0          
O        O      0.432750000000     0.000000000000     0.411066666667     0          
O        O      0.375000000000     0.050000000000     0.333333333333     0          
T        Si     0.220500000000     0.000000000000     0.606500000000     0          
T        Si     0.490800000000     0.000000000000     0.438166666667     0          
T        Si     0.380200000000     0.000000000000     0.368933333333     0          
O        O      0.234450000000     0.150000000000     0.578800000000     0          
O        O      0.375000000000     0.150000000000     0.333333333333     0          
O        O      0.265550000000     0.150000000000     0.421200000000     0          
O        O      0.125000000000     0.150000000000     0.333333333333     0          
O        O      0.087600000000     0.100000000000     0.398700000000     0          
O        O      0.015550000000     0.150000000000     0.421200000000     0          
O        O      0.000000000000     0.100000000000     0.333333333333     0          
O        O      0.250000000000     0.100000000000     0.500000000000     0          
O        O      0.317250000000     0.100000000000     0.588933333333     0          
T        Si     0.029500000000     0.100000000000     0.393500000000     0          
T        Si     0.259200000000     0.100000000000     0.561833333333     0          
T        Si     0.369800000000     0.100000000000     0.631066666667     0          
O        O      0.412400000000     0.100000000000     0.601300000000     0          
O        O      0.484450000000     0.150000000000     0.578800000000     0          
O        O      0.182750000000     0.100000000000     0.411066666667     0          
T        Si     0.470500000000     0.100000000000     0.606500000000     0          
T        Si     0.240800000000     0.100000000000     0.438166666667     0          
T        Si     0.130200000000     0.100000000000     0.368933333333     0          
O        O      0.484450000000     0.050000000000     0.578800000000     0          
O        O      0.015550000000     0.050000000000     0.421200000000     0          
O        O      0.337600000000     0.000000000000     0.732033333333     0          
O        O      0.265550000000     0.050000000000     0.754533333333     0          
O        O      0.250000000000     0.000000000000     0.666666666667     0          
O        O      0.000000000000     0.000000000000     0.833333333333     0          
O        O      0.067250000000     0.000000000000     0.922266666667     0          
O        O      0.125000000000     0.050000000000     0.666666666667     0          
T        Si     0.279500000000     0.000000000000     0.726833333333     0          
T        Si     0.009200000000     0.000000000000     0.895166666667     0          
T        Si     0.119800000000     0.000000000000     0.964400000000     0          
O        O      0.162400000000     0.000000000000     0.934633333333     0          
O        O      0.234450000000     0.050000000000     0.912133333333     0          
O        O      0.432750000000     0.000000000000     0.744400000000     0          
O        O      0.375000000000     0.050000000000     0.666666666667     0          
T        Si     0.220500000000     0.000000000000     0.939833333333     0          
T        Si     0.490800000000     0.000000000000     0.771500000000     0          
T        Si     0.380200000000     0.000000000000     0.702266666667     0          
O        O      0.234450000000     0.150000000000     0.912133333333     0          
O        O      0.375000000000     0.150000000000     0.666666666667     0          
O        O      0.265550000000     0.150000000000     0.754533333333     0          
O        O      0.125000000000     0.150000000000     0.666666666667     0          
O        O      0.087600000000     0.100000000000     0.732033333333     0          
O        O      0.015550000000     0.150000000000     0.754533333333     0          
O        O      0.000000000000     0.100000000000     0.666666666667     0          
O        O      0.250000000000     0.100000000000     0.833333333333     0          
O        O      0.317250000000     0.100000000000     0.922266666667     0          
T        Si     0.029500000000     0.100000000000     0.726833333333     0          
T        Si     0.259200000000     0.100000000000     0.895166666667     0          
T        Si     0.369800000000     0.100000000000     0.964400000000     0          
O        O      0.412400000000     0.100000000000     0.934633333333     0          
O        O      0.484450000000     0.150000000000     0.912133333333     0          
O        O      0.182750000000     0.100000000000     0.744400000000     0          
T        Si     0.470500000000     0.100000000000     0.939833333333     0          
T        Si     0.240800000000     0.100000000000     0.771500000000     0          
T        Si     0.130200000000     0.100000000000     0.702266666667     0          
O        O      0.484450000000     0.050000000000     0.912133333333     0          
O        O      0.015550000000     0.050000000000     0.754533333333     0          
O        O      0.337600000000     0.200000000000     0.065366666667     0          
O        O      0.265550000000     0.250000000000     0.087866666667     0          
O        O      0.250000000000     0.200000000000     0.000000000000     0          
O        O      0.000000000000     0.200000000000     0.166666666667     0          
O        O      0.067250000000     0.200000000000     0.255600000000     0          
O        O      0.125000000000     0.250000000000     0.000000000000     0          
T        Si     0.279500000000     0.200000000000     0.060166666667     0          
T        Si     0.009200000000     0.200000000000     0.228500000000     0          
T        Si     0.119800000000     0.200000000000     0.297733333333     0          
O        O      0.162400000000     0.200000000000     0.267966666667     0          
O        O      0.234450000000     0.250000000000     0.245466666667     0          
O        O      0.432750000000     0.200000000000     0.077733333333     0          
O        O      0.375000000000     0.250000000000     0.000000000000     0          
T        Si     0.220500000000     0.200000000000     0.273166666667     0          
T        Si     0.490800000000     0.200000000000     0.104833333333     0          
T        Si     0.380200000000     0.200000000000     0.035600000000     0          
O        O      0.234450000000     0.350000000000     0.245466666667     0          
O        O      0.375000000000     0.350000000000     0.000000000000     0          
O        O      0.265550000000     0.350000000000     0.087866666667     0          
O        O      0.125000000000     0.350000000000     0.000000000000     0          
O        O      0.087600000000     0.300000000000     0.065366666667     0          
O        O      0.015550000000     0.350000000000     0.087866666667     0          
O        O      0.000000000000     0.300000000000     0.000000000000     0          
O        O      0.250000000000     0.300000000000     0.166666666667     0          
O        O      0.317250000000     0.300000000000     0.255600000000     0          
T        Si     0.029500000000     0.300000000000     0.060166666667     0          
T        Si     0.259200000000     0.300000000000     0.228500000000     0          
T        Si     0.369800000000     0.300000000000     0.297733333333     0          
O        O      0.412400000000     0.300000000000     0.267966666667     0          
O        O      0.484450000000     0.350000000000     0.245466666667     0          
O        O      0.182750000000     0.300000000000     0.077733333333     0          
T        Si     0.470500000000     0.300000000000     0.273166666667     0          
T        Si     0.240800000000     0.300000000000     0.104833333333     0          
T        Si     0.130200000000     0.300000000000     0.035600000000     0          
O        O      0.484450000000     0.250000000000     0.245466666667     0          
O        O      0.015550000000     0.250000000000     0.087866666667     0          
O        O      0.337600000000     0.200000000000     0.398700000000     0          
O        O      0.265550000000     0.250000000000     0.421200000000     0          
O        O      0.250000000000     0.200000000000     0.333333333333     0          
O        O      0.000000000000     0.200000000000     0.500000000000     0          
O        O      0.067250000000     0.200000000000     0.588933333333     0          
O        O      0.125000000000     0.250000000000     0.333333333333     0          
T        Si     0.279500000000     0.200000000000     0.393500000000     0          
T        Si     0.009200000000     0.200000000000     0.561833333333     0          
T        Si     0.119800000000     0.200000000000     0.631066666667     0          
O        O      0.162400000000     0.200000000000     0.601300000000     0          
O        O      0.234450000000     0.250000000000     0.578800000000     0          
O        O      0.432750000000     0.200000000000     0.411066666667     0          
O        O      0.375000000000     0.250000000000     0.333333333333     0          
T        Si     0.220500000000     0.200000000000     0.606500000000     0          
T        Si     0.490800000000     0.200000000000     0.438166666667     0          
T        Si     0.380200000000     0.200000000000     0.368933333333     0          
O        O      0.234450000000     0.350000000000     0.578800000000     0          
O        O      0.375000000000     0.350000000000     0.333333333333     0          
O        O      0.265550000000     0.350000000000     0.421200000000     0          
O        O      0.125000000000     0.350000000000     0.333333333333     0          
O        O      0.087600000000     0.300000000000     0.398700000000     0          
O        O      0.015550000000     0.350000000000     0.421200000000     0          
O        O      0.000000000000     0.300000000000     0.333333333333     0          
O        O      0.250000000000     0.300000000000     0.500000000000     0          
O        O      0.317250000000     0.300000000000     0.588933333333     0          
T        Si     0.029500000000     0.300000000000     0.393500000000     0          
T        Si     0.259200000000     0.300000000000     0.561833333333     0          
T        Si     0.369800000000     0.300000000000     0.631066666667     0          
O        O      0.412400000000     0.300000000000     0.601300000000     0          
O        O      0.484450000000     0.350000000000     0.578800000000     0          
O        O      0.182750000000     0.300000000000     0.411066666667     0          
T        Si     0.470500000000     0.300000000000     0.606500000000     0          
T        Si     0.240800000000     0.300000000000     0.438166666667     0          
T        Si     0.130200000000     0.300000000000     0.368933333333     0          
O        O      0.484450000000     0.250000000000     0.578800000000     0          
O        O      0.015550000000     0.250000000000     0.421200000000     0          
O        O      0.337600000000     0.200000000000     0.732033333333     0          
O        O      0.265550000000     0.250000000000     0.754533333333     0          
O        O      0.250000000000     0.200000000000     0.666666666667     0          
O        O      0.000000000000     0.200000000000     0.833333333333     0          
O        O      0.067250000000     0.200000000000     0.922266666667     0          
O        O      0.125000000000     0.250000000000     0.666666666667     0          
T        Si     0.279500000000     0.200000000000     0.726833333333     0          
T        Si     0.009200000000     0.200000000000     0.895166666667     0          
T        Si     0.119800000000     0.200000000000     0.964400000000     0          
O        O      0.162400000000     0.200000000000     0.934633333333     0          
O        O      0.234450000000     0.250000000000     0.912133333333     0          
O        O      0.432750000000     0.200000000000     0.744400000000     0          
O        O      0.375000000000     0.250000000000     0.666666666667     0          
T        Si     0.220500000000     0.200000000000     0.939833333333     0          
T        Si     0.490800000000     0.200000000000     0.771500000000     0          
T        Si     0.380200000000     0.200000000000     0.702266666667     0          
O        O      0.234450000000     0.350000000000     0.912133333333     0          
O        O      0.375000000000     0.350000000000     0.666666666667     0          
O        O      0.265550000000     0.350000000000     0.754533333333     0          
O        O      0.125000000000     0.350000000000     0.666666666667     0          
O        O      0.087600000000     0.300000000000     0.732033333333     0          
O        O      0.015550000000     0.350000000000     0.754533333333     0          
O        O      0.000000000000     0.300000000000     0.666666666667     0          
O        O      0.250000000000     0.300000000000     0.833333333333     0          
O        O      0.317250000000     0.300000000000     0.922266666667     0          
T        Si     0.029500000000     0.300000000000     0.726833333333     0          
T        Si     0.259200000000     0.300000000000     0.895166666667     0          
T        Si     0.369800000000     0.300000000000     0.964400000000     0          
O        O      0.412400000000     0.300000000000     0.934633333333     0          
O        O      0.484450000000     0.350000000000     0.912133333333     0          
O        O      0.182750000000     0.300000000000     0.744400000000     0          
T        Si     0.470500000000     0.300000000000     0.939833333333     0          
T        Si     0.240800000000     0.300000000000     0.771500000000     0          
T        Si     0.130200000000     0.300000000000     0.702266666667     0          
O        O      0.484450000000     0.250000000000     0.912133333333     0          
O        O      0.015550000000     0.250000000000     0.754533333333     0          
O        O      0.337600000000     0.400000000000     0.065366666667     0          
O        O      0.265550000000     0.450000000000     0.087866666667     0          
O        O      0.250000000000     0.400000000000     0.000000000000     0          
O        O      0.000000000000     0.400000000000     0.166666666667     0          
O        O      0.067250000000     0.400000000000     0.255600000000     0          
O        O      0.125000000000     0.450000000000     0.000000000000     0          
T        Si     0.279500000000     0.400000000000     0.060166666667     0          
T        Si     0.009200000000     0.400000000000     0.228500000000     0          
T        Si     0.119800000000     0.400000000000     0.297733333333     0          
O        O      0.162400000000     0.400000000000     0.267966666667     0          
O        O      0.234450000000     0.450000000000     0.245466666667     0          
O        O      0.432750000000     0.400000000000     0.077733333333     0          
O        O      0.375000000000     0.450000000000     0.000000000000     0          
T        Si     0.220500000000     0.400000000000     0.273166666667     0          
T        Si     0.490800000000     0.400000000000     0.104833333333     0          
T        Si     0.380200000000     0.400000000000     0.035600000000     0          
O        O      0.234450000000     0.550000000000     0.245466666667     0          
O        O      0.375000000000     0.550000000000     0.000000000000     0          
O        O      0.265550000000     0.550000000000     0.087866666667     0          
O        O      0.125000000000     0.550000000000     0.000000000000     0          
O        O      0.087600000000     0.500000000000     0.065366666667     0          
O        O      0.015550000000     0.550000000000     0.087866666667     0          
O        O      0.000000000000     0.500000000000     0.000000000000     0          
O        O      0.250000000000     0.500000000000     0.166666666667     0          
O        O      0.317250000000     0.500000000000     0.255600000000     0          
T        Si     0.029500000000     0.500000000000     0.060166666667     0          
T        Si     0.259200000000     0.500000000000     0.228500000000     0          
T        Si     0.369800000000     0.500000000000     0.297733333333     0          
O        O      0.412400000000     0.500000000000     0.267966666667     0          
O        O      0.484450000000     0.550000000000     0.245466666667     0          
O        O      0.182750000000     0.500000000000     0.077733333333     0          
T        Si     0.470500000000     0.500000000000     0.273166666667     0          
T        Si     0.240800000000     0.500000000000     0.104833333333     0          
T        Si     0.130200000000     0.500000000000     0.035600000000     0          
O        O      0.484450000000     0.450000000000     0.245466666667     0          
O        O      0.015550000000     0.450000000000     0.087866666667     0          
O        O      0.337600000000     0.400000000000     0.398700000000     0          
O        O      0.265550000000     0.450000000000     0.421200000000     0          
O        O      0.250000000000     0.400000000000     0.333333333333     0          
O        O      0.000000000000     0.400000000000     0.500000000000     0          
O        O      0.067250000000     0.400000000000     0.588933333333     0          
O        O      0.125000000000     0.450000000000     0.333333333333     0          
T        Si     0.279500000000     0.400000000000     0.393500000000     0          
T        Si     0.009200000000     0.400000000000     0.561833333333     0          
T        Si     0.119800000000     0.400000000000     0.631066666667     0          
O        O      0.162400000000     0.400000000000     0.601300000000     0          
O        O      0.234450000000     0.450000000000     0.578800000000     0          
O        O      0.432750000000     0.400000000000     0.411066666667     0          
O        O      0.375000000000     0.450000000000     0.333333333333     0          
T        Si     0.220500000000     0.400000000000     0.606500000000     0          
T        Si     0.490800000000     0.400000000000     0.438166666667     0          
T        Si     0.380200000000     0.400000000000     0.368933333333     0          
O        O      0.234450000000     0.550000000000     0.578800000000     0          
O        O      0.375000000000     0.550000000000     0.333333333333     0          
O        O      0.265550000000     0.550000000000     0.421200000000     0          
O        O      0.125000000000     0.550000000000     0.333333333333     0          
O        O      0.087600000000     0.500000000000     0.398700000000     0          
O        O      0.015550000000     0.550000000000     0.421200000000     0          
O        O      0.000000000000     0.500000000000     0.333333333333     0          
O        O      0.250000000000     0.500000000000     0.500000000000     0          
O        O      0.317250000000     0.500000000000     0.588933333333     0          
T        Si     0.029500000000     0.500000000000     0.393500000000     0          
T        Si     0.259200000000     0.500000000000     0.561833333333     0          
T        Si     0.369800000000     0.500000000000     0.631066666667     0          
O        O      0.412400000000     0.500000000000     0.601300000000     0          
O        O      0.484450000000     0.550000000000     0.578800000000     0          
O        O      0.182750000000     0.500000000000     0.411066666667     0          
T        Si     0.470500000000     0.500000000000     0.606500000000     0          
T        Si     0.240800000000     0.500000000000     0.438166666667     0          
T        Si     0.130200000000     0.500000000000     0.368933333333     0          
O        O      0.484450000000     0.450000000000     0.578800000000     0          
O        O      0.015550000000     0.450000000000     0.421200000000     0          
O        O      0.337600000000     0.400000000000     0.732033333333     0          
O        O      0.265550000000     0.450000000000     0.754533333333     0          
O        O      0.250000000000     0.400000000000     0.666666666667     0          
O        O      0.000000000000     0.400000000000     0.833333333333     0          
O        O      0.067250000000     0.400000000000     0.922266666667     0          
O        O      0.125000000000     0.450000000000     0.666666666667     0          
T        Si     0.279500000000     0.400000000000     0.726833333333     0          
T        Si     0.009200000000     0.400000000000     0.895166666667     0          
T        Si     0.119800000000     0.400000000000     0.964400000000     0          
O        O      0.162400000000     0.400000000000     0.934633333333     0          
O        O      0.234450000000     0.450000000000     0.912133333333     0          
O        O      0.432750000000     0.400000000000     0.744400000000     0          
O        O      0.375000000000     0.450000000000     0.666666666667     0          
T        Si     0.220500000000     0.400000000000     0.939833333333     0          
T        Si     0.490800000000     0.400000000000     0.771500000000     0          
T        Si     0.380200000000     0.400000000000     0.702266666667     0          
O        O      0.234450000000     0.550000000000     0.912133333333     0          
O        O      0.375000000000     0.550000000000     0.666666666667     0          
O        O      0.265550000000     0.550000000000     0.754533333333     0          
O        O      0.125000000000     0.550000000000     0.666666666667     0          
O        O      0.087600000000     0.500000000000     0.732033333333     0          
O        O      0.015550000000     0.550000000000     0.754533333333     0          
O        O      0.000000000000     0.500000000000     0.666666666667     0          
O        O      0.250000000000     0.500000000000     0.833333333333     0          
O        O      0.317250000000     0.500000000000     0.922266666667     0          
T        Si     0.029500000000     0.500000000000     0.726833333333     0          
T        Si     0.259200000000     0.500000000000     0.895166666667     0          
T        Si     0.369800000000     0.500000000000     0.964400000000     0          
O        O      0.412400000000     0.500000000000     0.934633333333     0          
O        O      0.484450000000     0.550000000000     0.912133333333     0          
O        O      0.182750000000     0.500000000000     0.744400000000     0          
T        Si     0.470500000000     0.500000000000     0.939833333333     0          
T        Si     0.240800000000     0.500000000000     0.771500000000     0          
T        Si     0.130200000000     0.500000000000     0.702266666667     0          
O        O      0.484450000000     0.450000000000     0.912133333333     0          
O        O      0.015550000000     0.450000000000     0.754533333333     0          
O        O      0.337600000000     0.600000000000     0.065366666667     0          
O        O      0.265550000000     0.650000000000     0.087866666667     0          
O        O      0.250000000000     0.600000000000     0.000000000000     0          
O        O      0.000000000000     0.600000000000     0.166666666667     0          
O        O      0.067250000000     0.600000000000     0.255600000000     0          
O        O      0.125000000000     0.650000000000     0.000000000000     0          
T        Si     0.279500000000     0.600000000000     0.060166666667     0          
T        Si     0.009200000000     0.600000000000     0.228500000000     0          
T        Si     0.119800000000     0.600000000000     0.297733333333     0          
O        O      0.162400000000     0.600000000000     0.267966666667     0          
O        O      0.234450000000     0.650000000000     0.245466666667     0          
O        O      0.432750000000     0.600000000000     0.077733333333     0          
O        O      0.375000000000     0.650000000000     0.000000000000     0          
T        Si     0.220500000000     0.600000000000     0.273166666667     0          
T        Si     0.490800000000     0.600000000000     0.104833333333     0          
T        Si     0.380200000000     0.600000000000     0.035600000000     0          
O        O      0.234450000000     0.750000000000     0.245466666667     0          
O        O      0.375000000000     0.750000000000     0.000000000000     0          
O        O      0.265550000000     0.750000000000     0.087866666667     0          
O        O      0.125000000000     0.750000000000     0.000000000000     0          
O        O      0.087600000000     0.700000000000     0.065366666667     0          
O        O      0.015550000000     0.750000000000     0.087866666667     0          
O        O      0.000000000000     0.700000000000     0.000000000000     0          
O        O      0.250000000000     0.700000000000     0.166666666667     0          
O        O      0.317250000000     0.700000000000     0.255600000000     0          
T        Si     0.029500000000     0.700000000000     0.060166666667     0          
T        Si     0.259200000000     0.700000000000     0.228500000000     0          
T        Si     0.369800000000     0.700000000000     0.297733333333     0          
O        O      0.412400000000     0.700000000000     0.267966666667     0          
O        O      0.484450000000     0.750000000000     0.245466666667     0          
O        O      0.182750000000     0.700000000000     0.077733333333     0          
T        Si     0.470500000000     0.700000000000     0.273166666667     0          
T        Si     0.240800000000     0.700000000000     0.104833333333     0          
T        Si     0.130200000000     0.700000000000     0.035600000000     0          
O        O      0.484450000000     0.650000000000     0.245466666667     0          
O        O      0.015550000000     0.650000000000     0.087866666667     0          
O        O      0.337600000000     0.600000000000     0.398700000000     0          
O        O      0.265550000000     0.650000000000     0.421200000000     0          
O        O      0.250000000000     0.600000000000     0.333333333333     0          
O        O      0.000000000000     0.600000000000     0.500000000000     0          
O        O      0.067250000000     0.600000000000     0.588933333333     0          
O        O      0.125000000000     0.650000000000     0.333333333333     0          
T        Si     0.279500000000     0.600000000000     0.393500000000     0          
T        Si     0.009200000000     0.600000000000     0.561833333333     0          
T        Si     0.119800000000     0.600000000000     0.631066666667     0          
O        O      0.162400000000     0.600000000000     0.601300000000     0          
O        O      0.234450000000     0.650000000000     0.578800000000     0          
O        O      0.432750000000     0.600000000000     0.411066666667     0          
O        O      0.375000000000     0.650000000000     0.333333333333     0          
T        Si     0.220500000000     0.600000000000     0.606500000000     0          
T        Si     0.490800000000     0.600000000000     0.438166666667     0          
T        Si     0.380200000000     0.600000000000     0.368933333333     0          
O        O      0.234450000000     0.750000000000     0.578800000000     0          
O        O      0.375000000000     0.750000000000     0.333333333333     0          
O        O      0.265550000000     0.750000000000     0.421200000000     0          
O        O      0.125000000000     0.750000000000     0.333333333333     0          
O        O      0.087600000000     0.700000000000     0.398700000000     0          
O        O      0.015550000000     0.750000000000     0.421200000000     0          
O        O      0.000000000000     0.700000000000     0.333333333333     0          
O        O      0.250000000000     0.700000000000     0.500000000000     0          
O        O      0.317250000000     0.700000000000     0.588933333333     0          
T        Si     0.029500000000     0.700000000000     0.393500000000     0          
T        Si     0.259200000000     0.700000000000     0.561833333333     0          
T        Si     0.369800000000     0.700000000000     0.631066666667     0          
O        O      0.412400000000     0.700000000000     0.601300000000     0          
O        O      0.484450000000     0.750000000000     0.578800000000     0          
O        O      0.182750000000     0.700000000000     0.411066666667     0          
T        Si     0.470500000000     0.700000000000     0.606500000000     0          
T        Si     0.240800000000     0.700000000000     0.438166666667     0          
T        Si     0.130200000000     0.700000000000     0.368933333333     0          
O        O      0.484450000000     0.650000000000     0.578800000000     0          
O        O      0.015550000000     0.650000000000     0.421200000000     0          
O        O      0.337600000000     0.600000000000     0.732033333333     0          
O        O      0.265550000000     0.650000000000     0.754533333333     0          
O        O      0.250000000000     0.600000000000     0.666666666667     0          
O        O      0.000000000000     0.600000000000     0.833333333333     0          
O        O      0.067250000000     0.600000000000     0.922266666667     0          
O        O      0.125000000000     0.650000000000     0.666666666667     0          
T        Si     0.279500000000     0.600000000000     0.726833333333     0          
T        Si     0.009200000000     0.600000000000     0.895166666667     0          
T        Si     0.119800000000     0.600000000000     0.964400000000     0          
O        O      0.162400000000     0.600000000000     0.934633333333     0          
O        O      0.234450000000     0.650000000000     0.912133333333     0          
O        O      0.432750000000     0.600000000000     0.744400000000     0          
O        O      0.375000000000     0.650000000000     0.666666666667     0          
T        Si     0.220500000000     0.600000000000     0.939833333333     0          
T        Si     0.490800000000     0.600000000000     0.771500000000     0          
T        Si     0.380200000000     0.600000000000     0.702266666667     0          
O        O      0.234450000000     0.750000000000     0.912133333333     0          
O        O      0.375000000000     0.750000000000     0.666666666667     0          
O        O      0.265550000000     0.750000000000     0.754533333333     0          
O        O      0.125000000000     0.750000000000     0.666666666667     0          
O        O      0.087600000000     0.700000000000     0.732033333333     0          
O        O      0.015550000000     0.750000000000     0.754533333333     0          
O        O      0.000000000000     0.700000000000     0.666666666667     0          
O        O      0.250000000000     0.700000000000     0.833333333333     0          
O        O      0.317250000000     0.700000000000     0.922266666667     0          
T        Si     0.029500000000     0.700000000000     0.726833333333     0          
T        Si     0.259200000000     0.700000000000     0.895166666667     0          
T        Si     0.369800000000     0.700000000000     0.964400000000     0          
O        O      0.412400000000     0.700000000000     0.934633333333     0          
O        O      0.484450000000     0.750000000000     0.912133333333     0          
O        O      0.182750000000     0.700000000000     0.744400000000     0          
T        Si     0.470500000000     0.700000000000     0.939833333333     0          
T        Si     0.240800000000     0.700000000000     0.771500000000     0          
T        Si     0.130200000000     0.700000000000     0.702266666667     0          
O        O      0.484450000000     0.650000000000     0.912133333333     0          
O        O      0.015550000000     0.650000000000     0.754533333333     0          
O        O      0.337600000000     0.800000000000     0.065366666667     0          
O        O      0.265550000000     0.850000000000     0.087866666667     0          
O        O      0.250000000000     0.800000000000     0.000000000000     0          
O        O      0.000000000000     0.800000000000     0.166666666667     0          
O        O      0.067250000000     0.800000000000     0.255600000000     0          
O        O      0.125000000000     0.850000000000     0.000000000000     0          
T        Si     0.279500000000     0.800000000000     0.060166666667     0          
T        Si     0.009200000000     0.800000000000     0.228500000000     0          
T        Si     0.119800000000     0.800000000000     0.297733333333     0          
O        O      0.162400000000     0.800000000000     0.267966666667     0          
O        O      0.234450000000     0.850000000000     0.245466666667     0          
O        O      0.432750000000     0.800000000000     0.077733333333     0          
O        O      0.375000000000     0.850000000000     0.000000000000     0          
T        Si     0.220500000000     0.800000000000     0.273166666667     0          
T        Si     0.490800000000     0.800000000000     0.104833333333     0          
T        Si     0.380200000000     0.800000000000     0.035600000000     0          
O        O      0.234450000000     0.950000000000     0.245466666667     0          
O        O      0.375000000000     0.950000000000     0.000000000000     0          
O        O      0.265550000000     0.950000000000     0.087866666667     0          
O        O      0.125000000000     0.950000000000     0.000000000000     0          
O        O      0.087600000000     0.900000000000     0.065366666667     0          
O        O      0.015550000000     0.950000000000     0.087866666667     0          
O        O      0.000000000000     0.900000000000     0.000000000000     0          
O        O      0.250000000000     0.900000000000     0.166666666667     0          
O        O      0.317250000000     0.900000000000     0.255600000000     0          
T        Si     0.029500000000     0.900000000000     0.060166666667     0          
T        Si     0.259200000000     0.900000000000     0.228500000000     0          
T        Si     0.369800000000     0.900000000000     0.297733333333     0          
O        O      0.412400000000     0.900000000000     0.267966666667     0          
O        O      0.484450000000     0.950000000000     0.245466666667     0          
O        O      0.182750000000     0.900000000000     0.077733333333     0          
T        Si     0.470500000000     0.900000000000     0.273166666667     0          
T        Si     0.240800000000     0.900000000000     0.104833333333     0          
T        Si     0.130200000000     0.900000000000     0.035600000000     0          
O        O      0.484450000000     0.850000000000     0.245466666667     0          
O        O      0.015550000000     0.850000000000     0.087866666667     0          
O        O      0.337600000000     0.800000000000     0.398700000000     0          
O        O      0.265550000000     0.850000000000     0.421200000000     0          
O        O      0.250000000000     0.800000000000     0.333333333333     0          
O        O      0.000000000000     0.800000000000     0.500000000000     0          
O        O      0.067250000000     0.800000000000     0.588933333333     0          
O        O      0.125000000000     0.850000000000     0.333333333333     0          
T        Si     0.279500000000     0.800000000000     0.393500000000     0          
T        Si     0.009200000000     0.800000000000     0.561833333333     0          
T        Si     0.119800000000     0.800000000000     0.631066666667     0          
O        O      0.162400000000     0.800000000000     0.601300000000     0          
O        O      0.234450000000     0.850000000000     0.578800000000     0          
O        O      0.432750000000     0.800000000000     0.411066666667     0          
O        O      0.375000000000     0.850000000000     0.333333333333     0          
T        Si     0.220500000000     0.800000000000     0.606500000000     0          
T        Si     0.490800000000     0.800000000000     0.438166666667     0          
T        Si     0.380200000000     0.800000000000     0.368933333333     0          
O        O      0.234450000000     0.950000000000     0.578800000000     0          
O        O      0.375000000000     0.950000000000     0.333333333333     0          
O        O      0.265550000000     0.950000000000     0.421200000000     0          
O        O      0.125000000000     0.950000000000     0.333333333333     0          
O        O      0.087600000000     0.900000000000     0.398700000000     0          
O        O      0.015550000000     0.950000000000     0.421200000000     0          
O        O      0.000000000000     0.900000000000     0.333333333333     0          
O        O      0.250000000000     0.900000000000     0.500000000000     0          
O        O      0.317250000000     0.900000000000     0.588933333333     0          
T        Si     0.029500000000     0.900000000000     0.393500000000     0          
T        Si     0.259200000000     0.900000000000     0.561833333333     0          
T        Si     0.369800000000     0.900000000000     0.631066666667     0          
O        O      0.412400000000     0.900000000000     0.601300000000     0          
O        O      0.484450000000     0.950000000000     0.578800000000     0          
O        O      0.182750000000     0.900000000000     0.411066666667     0          
T        Si     0.470500000000     0.900000000000     0.606500000000     0          
T        Si     0.240800000000     0.900000000000     0.438166666667     0          
T        Si     0.130200000000     0.900000000000     0.368933333333     0          
O        O      0.484450000000     0.850000000000     0.578800000000     0          
O        O      0.015550000000     0.850000000000     0.421200000000     0          
O        O      0.337600000000     0.800000000000     0.732033333333     0          
O        O      0.265550000000     0.850000000000     0.754533333333     0          
O        O      0.250000000000     0.800000000000     0.666666666667     0          
O        O      0.000000000000     0.800000000000     0.833333333333     0          
O        O      0.067250000000     0.800000000000     0.922266666667     0          
O        O      0.125000000000     0.850000000000     0.666666666667     0          
T        Si     0.279500000000     0.800000000000     0.726833333333     0          
T        Si     0.009200000000     0.800000000000     0.895166666667     0          
T        Si     0.119800000000     0.800000000000     0.964400000000     0          
O        O      0.162400000000     0.800000000000     0.934633333333     0          
O        O      0.234450000000     0.850000000000     0.912133333333     0          
O        O      0.432750000000     0.800000000000     0.744400000000     0          
O        O      0.375000000000     0.850000000000     0.666666666667     0          
T        Si     0.220500000000     0.800000000000     0.939833333333     0          
T        Si     0.490800000000     0.800000000000     0.771500000000     0          
T        Si     0.380200000000     0.800000000000     0.702266666667     0          
O        O      0.234450000000     0.950000000000     0.912133333333     0          
O        O      0.375000000000     0.950000000000     0.666666666667     0          
O        O      0.265550000000     0.950000000000     0.754533333333     0          
O        O      0.125000000000     0.950000000000     0.666666666667     0          
O        O      0.087600000000     0.900000000000     0.732033333333     0          
O        O      0.015550000000     0.950000000000     0.754533333333     0          
O        O      0.000000000000     0.900000000000     0.666666666667     0          
O        O      0.250000000000     0.900000000000     0.833333333333     0          
O        O      0.317250000000     0.900000000000     0.922266666667     0          
T        Si     0.029500000000     0.900000000000     0.726833333333     0          
T        Si     0.259200000000     0.900000000000     0.895166666667     0          
T        Si     0.369800000000     0.900000000000     0.964400000000     0          
O        O      0.412400000000     0.900000000000     0.934633333333     0          
O        O      0.484450000000     0.950000000000     0.912133333333     0          
O        O      0.182750000000     0.900000000000     0.744400000000     0          
T        Si     0.470500000000     0.900000000000     0.939833333333     0          
T        Si     0.240800000000     0.900000000000     0.771500000000     0          
T        Si     0.130200000000     0.900000000000     0.702266666667     0          
O        O      0.484450000000     0.850000000000     0.912133333333     0          
O        O      0.015550000000     0.850000000000     0.754533333333     0          
O        O      0.837600000000     0.000000000000     0.065366666667     0          
O        O      0.765550000000     0.050000000000     0.087866666667     0          
O        O      0.750000000000     0.000000000000     0.000000000000     0          
O        O      0.500000000000     0.000000000000     0.166666666667     0          
O        O      0.567250000000     0.000000000000     0.255600000000     0          
O        O      0.625000000000     0.050000000000     0.000000000000     0          
T        Si     0.779500000000     0.000000000000     0.060166666667     0          
T        Si     0.509200000000     0.000000000000     0.228500000000     0          
T        Si     0.619800000000     0.000000000000     0.297733333333     0          
O        O      0.662400000000     0.000000000000     0.267966666667     0          
O        O      0.734450000000     0.050000000000     0.245466666667     0          
O        O      0.932750000000     0.000000000000     0.077733333333     0          
O        O      0.875000000000     0.050000000000     0.000000000000     0          
T        Si     0.720500000000     0.000000000000     0.273166666667     0          
T        Si     0.990800000000     0.000000000000     0.104833333333     0          
T        Si     0.880200000000     0.000000000000     0.035600000000     0          
O        O      0.734450000000     0.150000000000     0.245466666667     0          
O        O      0.875000000000     0.150000000000     0.000000000000     0          
O        O      0.765550000000     0.150000000000     0.087866666667     0          
O        O      0.625000000000     0.150000000000     0.000000000000     0          
O        O      0.587600000000     0.100000000000     0.065366666667     0          
O        O      0.515550000000     0.150000000000     0.087866666667     0          
O        O      0.500000000000     0.100000000000     0.000000000000     0          
O        O      0.750000000000     0.100000000000     0.166666666667     0          
O        O      0.817250000000     0.100000000000     0.255600000000     0          
T        Si     0.529500000000     0.100000000000     0.060166666667     0          
T        Si     0.759200000000     0.100000000000     0.228500000000     0          
T        Si     0.869800000000     0.100000000000     0.297733333333     0          
O        O      0.912400000000     0.100000000000     0.267966666667     0          
O        O      0.984450000000     0.150000000000     0.245466666667     0          
O        O      0.682750000000     0.100000000000     0.077733333333     0          
T        Si     0.970500000000     0.100000000000     0.273166666667     0          
T        Si     0.740800000000     0.100000000000     0.104833333333     0          
T        Si     0.630200000000     0.100000000000     0.035600000000     0          
O        O      0.984450000000     0.050000000000     0.245466666667     0          
O        O      0.515550000000     0.050000000000     0.087866666667     0          
O        O      0.837600000000     0.000000000000     0.398700000000     0          
O        O      0.765550000000     0.050000000000     0.421200000000     0          
O        O      0.750000000000     0.000000000000     0.333333333333     0          
O        O      0.500000000000     0.000000000000     0.500000000000     0          
O        O      0.567250000000     0.000000000000     0.588933333333     0          
O        O      0.625000000000     0.050000000000     0.333333333333     0          
T        Si     0.779500000000     0.000000000000     0.393500000000     0          
T        Si     0.509200000000     0.000000000000     0.561833333333     0          
T        Si     0.619800000000     0.000000000000     0.631066666667     0          
O        O      0.662400000000     0.000000000000     0.601300000000     0          
O        O      0.734450000000     0.050000000000     0.578800000000     0          
O        O      0.932750000000     0.000000000000     0.411066666667     0          
O        O      0.875000000000     0.050000000000     0.333333333333     0          
T        Si     0.720500000000     0.000000000000     0.606500000000     0          
T        Si     0.990800000000     0.000000000000     0.438166666667     0          
T        Si     0.880200000000     0.000000000000     0.368933333333     0          
O        O      0.734450000000     0.150000000000     0.578800000000     0          
O        O      0.875000000000     0.150000000000     0.333333333333     0          
O        O      0.765550000000     0.150000000000     0.421200000000     0          
O        O      0.625000000000     0.150000000000     0.333333333333     0          
O        O      0.587600000000     0.100000000000     0.398700000000     0          
O        O      0.515550000000     0.150000000000     0.421200000000     0          
O        O      0.500000000000     0.100000000000     0.333333333333     0          
O        O      0.750000000000     0.100000000000     0.500000000000     0          
O        O      0.817250000000     0.100000000000     0.588933333333     0          
T        Si     0.529500000000     0.100000000000     0.393500000000     0          
T        Si     0.759200000000     0.100000000000     0.561833333333     0          
T        Si     0.869800000000     0.100000000000     0.631066666667     0          
O        O      0.912400000000     0.100000000000     0.601300000000     0          
O        O      0.984450000000     0.150000000000     0.578800000000     0          
O        O      0.682750000000     0.100000000000     0.411066666667     0          
T        Si     0.970500000000     0.100000000000     0.606500000000     0          
T        Si     0.740800000000     0.100000000000     0.438166666667     0          
T        Si     0.630200000000     0.100000000000     0.368933333333     0          
O        O      0.984450000000     0.050000000000     0.578800000000     0          
O        O      0.515550000000     0.050000000000     0.421200000000     0          
O        O      0.837600000000     0.000000000000     0.732033333333     0          
O        O      0.765550000000     0.050000000000     0.754533333333     0          
O        O      0.750000000000     0.000000000000     0.666666666667     0          
O        O      0.500000000000     0.000000000000     0.833333333333     0          
O        O      0.567250000000     0.000000000000     0.922266666667     0          
O        O      0.625000000000     0.050000000000     0.666666666667     0          
T        Si     0.779500000000     0.000000000000     0.726833333333     0          
T        Si     0.509200000000     0.000000000000     0.895166666667     0          
T        Si     0.619800000000     0.000000000000     0.964400000000     0          
O        O      0.662400000000     0.000000000000     0.934633333333     0          
O        O      0.734450000000     0.050000000000     0.912133333333     0          
O        O      0.932750000000     0.000000000000     0.744400000000     0          
O        O      0.875000000000     0.050000000000     0.666666666667     0          
T        Si     0.720500000000     0.000000000000     0.939833333333     0          
T        Si     0.990800000000     0.000000000000     0.771500000000     0          
T        Si     0.880200000000     0.000000000000     0.702266666667     0          
O        O      0.734450000000     0.150000000000     0.912133333333     0          
O        O      0.875000000000     0.150000000000     0.666666666667     0          
O        O      0.765550000000     0.150000000000     0.754533333333     0          
O        O      0.625000000000     0.150000000000     0.666666666667     0          
O        O      0.587600000000     0.100000000000     0.732033333333     0          
O        O      0.515550000000     0.150000000000     0.754533333333     0          
O        O      0.500000000000     0.100000000000     0.666666666667     0          
O        O      0.750000000000     0.100000000000     0.833333333333     0          
O        O      0.817250000000     0.100000000000     0.922266666667     0          
T        Si     0.529500000000     0.100000000000     0.726833333333     0          
T        Si     0.759200000000     0.100000000000     0.895166666667     0          
T        Si     0.869800000000     0.100000000000     0.964400000000     0          
O        O      0.912400000000     0.100000000000     0.934633333333     0          
O        O      0.984450000000     0.150000000000     0.912133333333     0          
O        O      0.682750000000     0.100000000000     0.744400000000     0          
T        Si     0.970500000000     0.100000000000     0.939833333333     0          
T        Si     0.740800000000     0.100000000000     0.771500000000     0          
T        Si     0.630200000000     0.100000000000     0.702266666667     0          
O        O      0.984450000000     0.050000000000     0.912133333333     0          
O        O      0.515550000000     0.050000000000     0.754533333333     0          
O        O      0.837600000000     0.200000000000     0.065366666667     0          
O        O      0.765550000000     0.250000000000     0.087866666667     0          
O        O      0.750000000000     0.200000000000     0.000000000000     0          
O        O      0.500000000000     0.200000000000     0.166666666667     0          
O        O      0.567250000000     0.200000000000     0.255600000000     0          
O        O      0.625000000000     0.250000000000     0.000000000000     0          
T        Si     0.779500000000     0.200000000000     0.060166666667     0          
T        Si     0.509200000000     0.200000000000     0.228500000000     0          
T        Si     0.619800000000     0.200000000000     0.297733333333     0          
O        O      0.662400000000     0.200000000000     0.267966666667     0          
O        O      0.734450000000     0.250000000000     0.245466666667     0          
O        O      0.932750000000     0.200000000000     0.077733333333     0          
O        O      0.875000000000     0.250000000000     0.000000000000     0          
T        Si     0.720500000000     0.200000000000     0.273166666667     0          
T        Si     0.990800000000     0.200000000000     0.104833333333     0          
T        Si     0.880200000000     0.200000000000     0.035600000000     0          
O        O      0.734450000000     0.350000000000     0.245466666667     0          
O        O      0.875000000000     0.350000000000     0.000000000000     0          
O        O      0.765550000000     0.350000000000     0.087866666667     0          
O        O      0.625000000000     0.350000000000     0.000000000000     0          
O        O      0.587600000000     0.300000000000     0.065366666667     0          
O        O      0.515550000000     0.350000000000     0.087866666667     0          
O        O      0.500000000000     0.300000000000     0.000000000000     0          
O        O      0.750000000000     0.300000000000     0.166666666667     0          
O        O      0.817250000000     0.300000000000     0.255600000000     0          
T        Si     0.529500000000     0.300000000000     0.060166666667     0          
T        Si     0.759200000000     0.300000000000     0.228500000000     0          
T        Si     0.869800000000     0.300000000000     0.297733333333     0          
O        O      0.912400000000     0.300000000000     0.267966666667     0          
O        O      0.984450000000     0.350000000000     0.245466666667     0          
O        O      0.682750000000     0.300000000000     0.077733333333     0          
T        Si     0.970500000000     0.300000000000     0.273166666667     0          
T        Si     0.740800000000     0.300000000000     0.104833333333     0          
T        Si     0.630200000000     0.300000000000     0.035600000000     0          
O        O      0.984450000000     0.250000000000     0.245466666667     0          
O        O      0.515550000000     0.250000000000     0.087866666667     0          
O        O      0.837600000000     0.200000000000     0.398700000000     0          
O        O      0.765550000000     0.250000000000     0.421200000000     0          
O        O      0.750000000000     0.200000000000     0.333333333333     0          
O        O      0.500000000000     0.200000000000     0.500000000000     0          
O        O      0.567250000000     0.200000000000     0.588933333333     0          
O        O      0.625000000000     0.250000000000     0.333333333333     0          
T        Si     0.779500000000     0.200000000000     0.393500000000     0          
T        Si     0.509200000000     0.200000000000     0.561833333333     0          
T        Si     0.619800000000     0.200000000000     0.631066666667     0          
O        O      0.662400000000     0.200000000000     0.601300000000     0          
O        O      0.734450000000     0.250000000000     0.578800000000     0          
O        O      0.932750000000     0.200000000000     0.411066666667     0          
O        O      0.875000000000     0.250000000000     0.333333333333     0          
T        Si     0.720500000000     0.200000000000     0.606500000000     0          
T        Si     0.990800000000     0.200000000000     0.438166666667     0          
T        Si     0.880200000000     0.200000000000     0.368933333333     0          
O        O      0.734450000000     0.350000000000     0.578800000000     0          
O        O      0.875000000000     0.350000000000     0.333333333333     0          
O        O      0.765550000000     0.350000000000     0.421200000000     0          
O        O      0.625000000000     0.350000000000     0.333333333333     0          
O        O      0.587600000000     0.300000000000     0.398700000000     0          
O        O      0.515550000000     0.350000000000     0.421200000000     0          
O        O      0.500000000000     0.300000000000     0.333333333333     0          
O        O      0.750000000000     0.300000000000     0.500000000000     0          
O        O      0.817250000000     0.300000000000     0.588933333333     0          
T        Si     0.529500000000     0.300000000000     0.393500000000     0          
T        Si     0.759200000000     0.300000000000     0.561833333333     0          
T        Si     0.869800000000     0.300000000000     0.631066666667     0          
O        O      0.912400000000     0.300000000000     0.601300000000     0          
O        O      0.984450000000     0.350000000000     0.578800000000     0          
O        O      0.682750000000     0.300000000000     0.411066666667     0          
T        Si     0.970500000000     0.300000000000     0.606500000000     0          
T        Si     0.740800000000     0.300000000000     0.438166666667     0          
T        Si     0.630200000000     0.300000000000     0.368933333333     0          
O        O      0.984450000000     0.250000000000     0.578800000000     0          
O        O      0.515550000000     0.250000000000     0.421200000000     0          
O        O      0.837600000000     0.200000000000     0.732033333333     0          
O        O      0.765550000000     0.250000000000     0.754533333333     0          
O        O      0.750000000000     0.200000000000     0.666666666667     0          
O        O      0.500000000000     0.200000000000     0.833333333333     0          
O        O      0.567250000000     0.200000000000     0.922266666667     0          
O        O      0.625000000000     0.250000000000     0.666666666667     0          
T        Si     0.779500000000     0.200000000000     0.726833333333     0          
T        Si     0.509200000000     0.200000000000     0.895166666667     0          
T        Si     0.619800000000     0.200000000000     0.964400000000     0          
O        O      0.662400000000     0.200000000000     0.934633333333     0          
O        O      0.734450000000     0.250000000000     0.912133333333     0          
O        O      0.932750000000     0.200000000000     0.744400000000     0          
O        O      0.875000000000     0.250000000000     0.666666666667     0          
T        Si     0.720500000000     0.200000000000     0.939833333333     0          
T        Si     0.990800000000     0.200000000000     0.771500000000     0          
T        Si     0.880200000000     0.200000000000     0.702266666667     0          
O        O      0.734450000000     0.350000000000     0.912133333333     0          
O        O      0.875000000000     0.350000000000     0.666666666667     0          
O        O      0.765550000000     0.350000000000     0.754533333333     0          
O        O      0.625000000000     0.350000000000     0.666666666667     0          
O        O      0.587600000000     0.300000000000     0.732033333333     0          
O        O      0.515550000000     0.350000000000     0.754533333333     0          
O        O      0.500000000000     0.300000000000     0.666666666667     0          
O        O      0.750000000000     0.300000000000     0.833333333333     0          
O        O      0.817250000000     0.300000000000     0.922266666667     0          
T        Si     0.529500000000     0.300000000000     0.726833333333     0          
T        Si     0.759200000000     0.300000000000     0.895166666667     0          
T        Si     0.869800000000     0.300000000000     0.964400000000     0          
O        O      0.912400000000     0.300000000000     0.934633333333     0          
O        O      0.984450000000     0.350000000000     0.912133333333     0          
O        O      0.682750000000     0.300000000000     0.744400000000     0          
T        Si     0.970500000000     0.300000000000     0.939833333333     0          
T        Si     0.740800000000     0.300000000000     0.771500000000     0          
T        Si     0.630200000000     0.300000000000     0.702266666667     0          
O        O      0.984450000000     0.250000000000     0.912133333333     0          
O        O      0.515550000000     0.250000000000     0.754533333333     0          
O        O      0.837600000000     0.400000000000     0.065366666667     0          
O        O      0.765550000000     0.450000000000     0.087866666667     0          
O        O      0.750000000000     0.400000000000     0.000000000000     0          
O        O      0.500000000000     0.400000000000     0.166666666667     0          
O        O      0.567250000000     0.400000000000     0.255600000000     0          
O        O      0.625000000000     0.450000000000     0.000000000000     0          
T        Si     0.779500000000     0.400000000000     0.060166666667     0          
T        Si     0.509200000000     0.400000000000     0.228500000000     0          
T        Si     0.619800000000     0.400000000000     0.297733333333     0          
O        O      0.662400000000     0.400000000000     0.267966666667     0          
O        O      0.734450000000     0.450000000000     0.245466666667     0          
O        O      0.932750000000     0.400000000000     0.077733333333     0          
O        O      0.875000000000     0.450000000000     0.000000000000     0          
T        Si     0.720500000000     0.400000000000     0.273166666667     0          
T        Si     0.990800000000     0.400000000000     0.104833333333     0          
T        Si     0.880200000000     0.400000000000     0.035600000000     0          
O        O      0.734450000000     0.550000000000     0.245466666667     0          
O        O      0.875000000000     0.550000000000     0.000000000000     0          
O        O      0.765550000000     0.550000000000     0.087866666667     0          
O        O      0.625000000000     0.550000000000     0.000000000000     0          
O        O      0.587600000000     0.500000000000     0.065366666667     0          
O        O      0.515550000000     0.550000000000     0.087866666667     0          
O        O      0.500000000000     0.500000000000     0.000000000000     0          
O        O      0.750000000000     0.500000000000     0.166666666667     0          
O        O      0.817250000000     0.500000000000     0.255600000000     0          
T        Si     0.529500000000     0.500000000000     0.060166666667     0          
T        Si     0.759200000000     0.500000000000     0.228500000000     0          
T        Si     0.869800000000     0.500000000000     0.297733333333     0          
O        O      0.912400000000     0.500000000000     0.267966666667     0          
O        O      0.984450000000     0.550000000000     0.245466666667     0          
O        O      0.682750000000     0.500000000000     0.077733333333     0          
T        Si     0.970500000000     0.500000000000     0.273166666667     0          
T        Si     0.740800000000     0.500000000000     0.104833333333     0          
T        Si     0.630200000000     0.500000000000     0.035600000000     0          
O        O      0.984450000000     0.450000000000     0.245466666667     0          
O        O      0.515550000000     0.450000000000     0.087866666667     0          
O        O      0.837600000000     0.400000000000     0.398700000000     0          
O        O      0.765550000000     0.450000000000     0.421200000000     0          
O        O      0.750000000000     0.400000000000     0.333333333333     0          
O        O      0.500000000000     0.400000000000     0.500000000000     0          
O        O      0.567250000000     0.400000000000     0.588933333333     0          
O        O      0.625000000000     0.450000000000     0.333333333333     0          
T        Si     0.779500000000     0.400000000000     0.393500000000     0          
T        Si     0.509200000000     0.400000000000     0.561833333333     0          
T        Si     0.619800000000     0.400000000000     0.631066666667     0          
O        O      0.662400000000     0.400000000000     0.601300000000     0          
O        O      0.734450000000     0.450000000000     0.578800000000     0          
O        O      0.932750000000     0.400000000000     0.411066666667     0          
O        O      0.875000000000     0.450000000000     0.333333333333     0          
T        Si     0.720500000000     0.400000000000     0.606500000000     0          
T        Si     0.990800000000     0.400000000000     0.438166666667     0          
T        Si     0.880200000000     0.400000000000     0.368933333333     0          
O        O      0.734450000000     0.550000000000     0.578800000000     0          
O        O      0.875000000000     0.550000000000     0.333333333333     0          
O        O      0.765550000000     0.550000000000     0.421200000000     0          
O        O      0.625000000000     0.550000000000     0.333333333333     0          
O        O      0.587600000000     0.500000000000     0.398700000000     0          
O        O      0.515550000000     0.550000000000     0.421200000000     0          
O        O      0.500000000000     0.500000000000     0.333333333333     0          
O        O      0.750000000000     0.500000000000     0.500000000000     0          
O        O      0.817250000000     0.500000000000     0.588933333333     0          
T        Si     0.529500000000     0.500000000000     0.393500000000     0          
T        Si     0.759200000000     0.500000000000     0.561833333333     0          
T        Si     0.869800000000     0.500000000000     0.631066666667     0          
O        O      0.912400000000     0.500000000000     0.601300000000     0          
O        O      0.984450000000     0.550000000000     0.578800000000     0          
O        O      0.682750000000     0.500000000000     0.411066666667     0          
T        Si     0.970500000000     0.500000000000     0.606500000000     0          
T        Si     0.740800000000     0.500000000000     0.438166666667     0          
T        Si     0.630200000000     0.500000000000     0.368933333333     0          
O        O      0.984450000000     0.450000000000     0.578800000000     0          
O        O      0.515550000000     0.450000000000     0.421200000000     0          
O        O      0.837600000000     0.400000000000     0.732033333333     0          
O        O      0.765550000000     0.450000000000     0.754533333333     0          
O        O      0.750000000000     0.400000000000     0.666666666667     0          
O        O      0.500000000000     0.400000000000     0.833333333333     0          
O        O      0.567250000000     0.400000000000     0.922266666667     0          
O        O      0.625000000000     0.450000000000     0.666666666667     0          
T        Si     0.779500000000     0.400000000000     0.726833333333     0          
T        Si     0.509200000000     0.400000000000     0.895166666667     0          
T        Si     0.619800000000     0.400000000000     0.964400000000     0          
O        O      0.662400000000     0.400000000000     0.934633333333     0          
O        O      0.734450000000     0.450000000000     0.912133333333     0          
O        O      0.932750000000     0.400000000000     0.744400000000     0          
O        O      0.875000000000     0.450000000000     0.666666666667     0          
T        Si     0.720500000000     0.400000000000     0.939833333333     0          
T        Si     0.990800000000     0.400000000000     0.771500000000     0          
T        Si     0.880200000000     0.400000000000     0.702266666667     0          
O        O      0.734450000000     0.550000000000     0.912133333333     0          
O        O      0.875000000000     0.550000000000     0.666666666667     0          
O        O      0.765550000000     0.550000000000     0.754533333333     0          
O        O      0.625000000000     0.550000000000     0.666666666667     0          
O        O      0.587600000000     0.500000000000     0.732033333333     0          
O        O      0.515550000000     0.550000000000     0.754533333333     0          
O        O      0.500000000000     0.500000000000     0.666666666667     0          
O        O      0.750000000000     0.500000000000     0.833333333333     0          
O        O      0.817250000000     0.500000000000     0.922266666667     0          
T        Si     0.529500000000     0.500000000000     0.726833333333     0          
T        Si     0.759200000000     0.500000000000     0.895166666667     0          
T        Si     0.869800000000     0.500000000000     0.964400000000     0          
O        O      0.912400000000     0.500000000000     0.934633333333     0          
O        O      0.984450000000     0.550000000000     0.912133333333     0          
O        O      0.682750000000     0.500000000000     0.744400000000     0          
T        Si     0.970500000000     0.500000000000     0.939833333333     0          
T        Si     0.740800000000     0.500000000000     0.771500000000     0          
T        Si     0.630200000000     0.500000000000     0.702266666667     0          
O        O      0.984450000000     0.450000000000     0.912133333333     0          
O        O      0.515550000000     0.450000000000     0.754533333333     0          
O        O      0.837600000000     0.600000000000     0.065366666667     0          
O        O      0.765550000000     0.650000000000     0.087866666667     0          
O        O      0.750000000000     0.600000000000     0.000000000000     0          
O        O      0.500000000000     0.600000000000     0.166666666667     0          
O        O      0.567250000000     0.600000000000     0.255600000000     0          
O        O      0.625000000000     0.650000000000     0.000000000000     0          
T        Si     0.779500000000     0.600000000000     0.060166666667     0          
T        Si     0.509200000000     0.600000000000     0.228500000000     0          
T        Si     0.619800000000     0.600000000000     0.297733333333     0          
O        O      0.662400000000     0.600000000000     0.267966666667     0          
O        O      0.734450000000     0.650000000000     0.245466666667     0          
O        O      0.932750000000     0.600000000000     0.077733333333     0          
O        O      0.875000000000     0.650000000000     0.000000000000     0          
T        Si     0.720500000000     0.600000000000     0.273166666667     0          
T        Si     0.990800000000     0.600000000000     0.104833333333     0          
T        Si     0.880200000000     0.600000000000     0.035600000000     0          
O        O      0.734450000000     0.750000000000     0.245466666667     0          
O        O      0.875000000000     0.750000000000     0.000000000000     0          
O        O      0.765550000000     0.750000000000     0.087866666667     0          
O        O      0.625000000000     0.750000000000     0.000000000000     0          
O        O      0.587600000000     0.700000000000     0.065366666667     0          
O        O      0.515550000000     0.750000000000     0.087866666667     0          
O        O      0.500000000000     0.700000000000     0.000000000000     0          
O        O      0.750000000000     0.700000000000     0.166666666667     0          
O        O      0.817250000000     0.700000000000     0.255600000000     0          
T        Si     0.529500000000     0.700000000000     0.060166666667     0          
T        Si     0.759200000000     0.700000000000     0.228500000000     0          
T        Si     0.869800000000     0.700000000000     0.297733333333     0          
O        O      0.912400000000     0.700000000000     0.267966666667     0          
O        O      0.984450000000     0.750000000000     0.245466666667     0          
O        O      0.682750000000     0.700000000000     0.077733333333     0          
T        Si     0.970500000000     0.700000000000     0.273166666667     0          
T        Si     0.740800000000     0.700000000000     0.104833333333     0          
T        Si     0.630200000000     0.700000000000     0.035600000000     0          
O        O      0.984450000000     0.650000000000     0.245466666667     0          
O        O      0.515550000000     0.650000000000     0.087866666667     0          
O        O      0.837600000000     0.600000000000     0.398700000000     0          
O        O      0.765550000000     0.650000000000     0.421200000000     0          
O        O      0.750000000000     0.600000000000     0.333333333333     0          
O        O      0.500000000000     0.600000000000     0.500000000000     0          
O        O      0.567250000000     0.600000000000     0.588933333333     0          
O        O      0.625000000000     0.650000000000     0.333333333333     0          
T        Si     0.779500000000     0.600000000000     0.393500000000     0          
T        Si     0.509200000000     0.600000000000     0.561833333333     0          
T        Si     0.619800000000     0.600000000000     0.631066666667     0          
O        O      0.662400000000     0.600000000000     0.601300000000     0          
O        O      0.734450000000     0.650000000000     0.578800000000     0          
O        O      0.932750000000     0.600000000000     0.411066666667     0          
O        O      0.875000000000     0.650000000000     0.333333333333     0          
T        Si     0.720500000000     0.600000000000     0.606500000000     0          
T        Si     0.990800000000     0.600000000000     0.438166666667     0          
T        Si     0.880200000000     0.600000000000     0.368933333333     0          
O        O      0.734450000000     0.750000000000     0.578800000000     0          
O        O      0.875000000000     0.750000000000     0.333333333333     0          
O        O      0.765550000000     0.750000000000     0.421200000000     0          
O        O      0.625000000000     0.750000000000     0.333333333333     0          
O        O      0.587600000000     0.700000000000     0.398700000000     0          
O        O      0.515550000000     0.750000000000     0.421200000000     0          
O        O      0.500000000000     0.700000000000     0.333333333333     0          
O        O      0.750000000000     0.700000000000     0.500000000000     0          
O        O      0.817250000000     0.700000000000     0.588933333333     0          
T        Si     0.529500000000     0.700000000000     0.393500000000     0          
T        Si     0.759200000000     0.700000000000     0.561833333333     0          
T        Si     0.869800000000     0.700000000000     0.631066666667     0          
O        O      0.912400000000     0.700000000000     0.601300000000     0          
O        O      0.984450000000     0.750000000000     0.578800000000     0          
O        O      0.682750000000     0.700000000000     0.411066666667     0          
T        Si     0.970500000000     0.700000000000     0.606500000000     0          
T        Si     0.740800000000     0.700000000000     0.438166666667     0          
T        Si     0.630200000000     0.700000000000     0.368933333333     0          
O        O      0.984450000000     0.650000000000     0.578800000000     0          
O        O      0.515550000000     0.650000000000     0.421200000000     0          
O        O      0.837600000000     0.600000000000     0.732033333333     0          
O        O      0.765550000000     0.650000000000     0.754533333333     0          
O        O      0.750000000000     0.600000000000     0.666666666667     0          
O        O      0.500000000000     0.600000000000     0.833333333333     0          
O        O      0.567250000000     0.600000000000     0.922266666667     0          
O        O      0.625000000000     0.650000000000     0.666666666667     0          
T        Si     0.779500000000     0.600000000000     0.726833333333     0          
T        Si     0.509200000000     0.600000000000     0.895166666667     0          
T        Si     0.619800000000     0.600000000000     0.964400000000     0          
O        O      0.662400000000     0.600000000000     0.934633333333     0          
O        O      0.734450000000     0.650000000000     0.912133333333     0          
O        O      0.932750000000     0.600000000000     0.744400000000     0          
O        O      0.875000000000     0.650000000000     0.666666666667     0          
T        Si     0.720500000000     0.600000000000     0.939833333333     0          
T        Si     0.990800000000     0.600000000000     0.771500000000     0          
T        Si     0.880200000000     0.600000000000     0.702266666667     0          
O        O      0.734450000000     0.750000000000     0.912133333333     0          
O        O      0.875000000000     0.750000000000     0.666666666667     0          
O        O      0.765550000000     0.750000000000     0.754533333333     0          
O        O      0.625000000000     0.750000000000     0.666666666667     0          
O        O      0.587600000000     0.700000000000     0.732033333333     0          
O        O      0.515550000000     0.750000000000     0.754533333333     0          
O        O      0.500000000000     0.700000000000     0.666666666667     0          
O        O      0.750000000000     0.700000000000     0.833333333333     0          
O        O      0.817250000000     0.700000000000     0.922266666667     0          
T        Si     0.529500000000     0.700000000000     0.726833333333     0          
T        Si     0.759200000000     0.700000000000     0.895166666667     0          
T        Si     0.869800000000     0.700000000000     0.964400000000     0          
O        O      0.912400000000     0.700000000000     0.934633333333     0          
O        O      0.984450000000     0.750000000000     0.912133333333     0          
O        O      0.682750000000     0.700000000000     0.744400000000     0          
T        Si     0.970500000000     0.700000000000     0.939833333333     0          
T        Si     0.740800000000     0.700000000000     0.771500000000     0          
T        Si     0.630200000000     0.700000000000     0.702266666667     0          
O        O      0.984450000000     0.650000000000     0.912133333333     0          
O        O      0.515550000000     0.650000000000     0.754533333333     0          
O        O      0.837600000000     0.800000000000     0.065366666667     0          
O        O      0.765550000000     0.850000000000     0.087866666667     0          
O        O      0.750000000000     0.800000000000     0.000000000000     0          
O        O      0.500000000000     0.800000000000     0.166666666667     0          
O        O      0.567250000000     0.800000000000     0.255600000000     0          
O        O      0.625000000000     0.850000000000     0.000000000000     0          
T        Si     0.779500000000     0.800000000000     0.060166666667     0          
T        Si     0.509200000000     0.800000000000     0.228500000000     0          
T        Si     0.619800000000     0.800000000000     0.297733333333     0          
O        O      0.662400000000     0.800000000000     0.267966666667     0          
O        O      0.734450000000     0.850000000000     0.245466666667     0          
O        O      0.932750000000     0.800000000000     0.077733333333     0          
O        O      0.875000000000     0.850000000000     0.000000000000     0          
T        Si     0.720500000000     0.800000000000     0.273166666667     0          
T        Si     0.990800000000     0.800000000000     0.104833333333     0          
T        Si     0.880200000000     0.800000000000     0.035600000000     0          
O        O      0.734450000000     0.950000000000     0.245466666667     0          
O        O      0.875000000000     0.950000000000     0.000000000000     0          
O        O      0.765550000000     0.950000000000     0.087866666667     0          
O        O      0.625000000000     0.950000000000     0.000000000000     0          
O        O      0.587600000000     0.900000000000     0.065366666667     0          
O        O      0.515550000000     0.950000000000     0.087866666667     0          
O        O      0.500000000000     0.900000000000     0.000000000000     0          
O        O      0.750000000000     0.900000000000     0.166666666667     0          
O        O      0.817250000000     0.900000000000     0.255600000000     0          
T        Si     0.529500000000     0.900000000000     0.060166666667     0          
T        Si     0.759200000000     0.900000000000     0.228500000000     0          
T        Si     0.869800000000     0.900000000000     0.297733333333     0          
O        O      0.912400000000     0.900000000000     0.267966666667     0          
O        O      0.984450000000     0.950000000000     0.245466666667     0          
O        O      0.682750000000     0.900000000000     0.077733333333     0          
T        Si     0.970500000000     0.900000000000     0.273166666667     0          
T        Si     0.740800000000     0.900000000000     0.104833333333     0          
T        Si     0.630200000000     0.900000000000     0.035600000000     0          
O        O      0.984450000000     0.850000000000     0.245466666667     0          
O        O      0.515550000000     0.850000000000     0.087866666667     0          
O        O      0.837600000000     0.800000000000     0.398700000000     0          
O        O      0.765550000000     0.850000000000     0.421200000000     0          
O        O      0.750000000000     0.800000000000     0.333333333333     0          
O        O      0.500000000000     0.800000000000     0.500000000000     0          
O        O      0.567250000000     0.800000000000     0.588933333333     0          
O        O      0.625000000000     0.850000000000     0.333333333333     0          
T        Si     0.779500000000     0.800000000000     0.393500000000     0          
T        Si     0.509200000000     0.800000000000     0.561833333333     0          
T        Si     0.619800000000     0.800000000000     0.631066666667     0          
O        O      0.662400000000     0.800000000000     0.601300000000     0          
O        O      0.734450000000     0.850000000000     0.578800000000     0          
O        O      0.932750000000     0.800000000000     0.411066666667     0          
O        O      0.875000000000     0.850000000000     0.333333333333     0          
T        Si     0.720500000000     0.800000000000     0.606500000000     0          
T        Si     0.990800000000     0.800000000000     0.438166666667     0          
T        Si     0.880200000000     0.800000000000     0.368933333333     0          
O        O      0.734450000000     0.950000000000     0.578800000000     0          
O        O      0.875000000000     0.950000000000     0.333333333333     0          
O        O      0.765550000000     0.950000000000     0.421200000000     0          
O        O      0.625000000000     0.950000000000     0.333333333333     0          
O        O      0.587600000000     0.900000000000     0.398700000000     0          
O        O      0.515550000000     0.950000000000     0.421200000000     0          
O        O      0.500000000000     0.900000000000     0.333333333333     0          
O        O      0.750000000000     0.900000000000     0.500000000000     0          
O        O      0.817250000000     0.900000000000     0.588933333333     0          
T        Si     0.529500000000     0.900000000000     0.393500000000     0          
T        Si     0.759200000000     0.900000000000     0.561833333333     0          
T        Si     0.869800000000     0.900000000000     0.631066666667     0          
O        O      0.912400000000     0.900000000000     0.601300000000     0          
O        O      0.984450000000     0.950000000000     0.578800000000     0          
O        O      0.682750000000     0.900000000000     0.411066666667     0          
T        Si     0.970500000000     0.900000000000     0.606500000000     0          
T        Si     0.740800000000     0.900000000000     0.438166666667     0          
T        Si     0.630200000000     0.900000000000     0.368933333333     0          
O        O      0.984450000000     0.850000000000     0.578800000000     0          
O        O      0.515550000000     0.850000000000     0.421200000000     0          
O        O      0.837600000000     0.800000000000     0.732033333333     0          
O        O      0.765550000000     0.850000000000     0.754533333333     0          
O        O      0.750000000000     0.800000000000     0.666666666667     0          
O        O      0.500000000000     0.800000000000     0.833333333333     0          
O        O      0.567250000000     0.800000000000     0.922266666667     0          
O        O      0.625000000000     0.850000000000     0.666666666667     0          
T        Si     0.779500000000     0.800000000000     0.726833333333     0          
T        Si     0.509200000000     0.800000000000     0.895166666667     0          
T        Si     0.619800000000     0.800000000000     0.964400000000     0          
O        O      0.662400000000     0.800000000000     0.934633333333     0          
O        O      0.734450000000     0.850000000000     0.912133333333     0          
O        O      0.932750000000     0.800000000000     0.744400000000     0          
O        O      0.875000000000     0.850000000000     0.666666666667     0          
T        Si     0.720500000000     0.800000000000     0.939833333333     0          
T        Si     0.990800000000     0.800000000000     0.771500000000     0          
T        Si     0.880200000000     0.800000000000     0.702266666667     0          
O        O      0.734450000000     0.950000000000     0.912133333333     0          
O        O      0.875000000000     0.950000000000     0.666666666667     0          
O        O      0.765550000000     0.950000000000     0.754533333333     0          
O        O      0.625000000000     0.950000000000     0.666666666667     0          
O        O      0.587600000000     0.900000000000     0.732033333333     0          
O        O      0.515550000000     0.950000000000     0.754533333333     0          
O        O      0.500000000000     0.900000000000     0.666666666667     0          
O        O      0.750000000000     0.900000000000     0.833333333333     0          
O        O      0.817250000000     0.900000000000     0.922266666667     0          
T        Si     0.529500000000     0.900000000000     0.726833333333     0          
T        Si     0.759200000000     0.900000000000     0.895166666667     0          
T        Si     0.869800000000     0.900000000000     0.964400000000     0          
O        O      0.912400000000     0.900000000000     0.934633333333     0          
O        O      0.984450000000     0.950000000000     0.912133333333     0          
O        O      0.682750000000     0.900000000000     0.744400000000     0          
T        Si     0.970500000000     0.900000000000     0.939833333333     0          
T        Si     0.740800000000     0.900000000000     0.771500000000     0          
T        Si     0.630200000000     0.900000000000     0.702266666667     0          
O        O      0.984450000000     0.850000000000     0.912133333333     0          
O        O      0.515550000000     0.850000000000     0.754533333333     0          


