data_zeolite

_audit_creation_method RASPA-1.0
_audit_creation_date 2021-6-7
_audit_author_name ''

_cell_length_a    14.349
_cell_length_b    14.349
_cell_length_c    10.398
_cell_angle_alpha 90
_cell_angle_beta  90
_cell_angle_gamma 90
_cell_volume      25690.6

_symmetry_cell_setting          tetragonal
_symmetry_space_group_name_Hall 'P 1'
_symmetry_space_group_name_H-M  'P 1'
_symmetry_Int_Tables_number     1

_symmetry_equiv_pos_as_xyz 'x,y,z'

loop_
_atom_site_label
_atom_site_type_symbol
_atom_site_fract_x
_atom_site_fract_y
_atom_site_fract_z
_atom_site_charge
T        Si     0.133100000000     0.444650000000     0.000000000000     0          
T        Si     0.304500000000     0.445500000000     0.250000000000     0          
T        Si     0.055350000000     0.133100000000     0.000000000000     0          
T        Si     0.054500000000     0.304500000000     0.250000000000     0          
T        Si     0.366900000000     0.055350000000     0.000000000000     0          
T        Si     0.195500000000     0.054500000000     0.250000000000     0          
T        Si     0.444650000000     0.366900000000     0.000000000000     0          
T        Si     0.445500000000     0.195500000000     0.250000000000     0          
T        Si     0.133100000000     0.055350000000     0.000000000000     0          
T        Si     0.304500000000     0.054500000000     0.083333333333     0          
T        Si     0.444650000000     0.133100000000     0.000000000000     0          
T        Si     0.445500000000     0.304500000000     0.083333333333     0          
T        Si     0.366900000000     0.444650000000     0.000000000000     0          
T        Si     0.195500000000     0.445500000000     0.083333333333     0          
T        Si     0.055350000000     0.366900000000     0.000000000000     0          
T        Si     0.054500000000     0.195500000000     0.083333333333     0          
T        Si     0.195500000000     0.054500000000     0.083333333333     0          
T        Si     0.445500000000     0.195500000000     0.083333333333     0          
T        Si     0.304500000000     0.445500000000     0.083333333333     0          
T        Si     0.054500000000     0.304500000000     0.083333333333     0          
T        Si     0.195500000000     0.445500000000     0.250000000000     0          
T        Si     0.054500000000     0.195500000000     0.250000000000     0          
T        Si     0.304500000000     0.054500000000     0.250000000000     0          
T        Si     0.445500000000     0.304500000000     0.250000000000     0          
T        Si     0.383100000000     0.194650000000     0.166666666667     0          
T        Si     0.305350000000     0.383100000000     0.166666666667     0          
T        Si     0.116900000000     0.305350000000     0.166666666667     0          
T        Si     0.194650000000     0.116900000000     0.166666666667     0          
T        Si     0.383100000000     0.305350000000     0.166666666667     0          
T        Si     0.194650000000     0.383100000000     0.166666666667     0          
T        Si     0.116900000000     0.194650000000     0.166666666667     0          
T        Si     0.305350000000     0.116900000000     0.166666666667     0          
T        Si     0.133100000000     0.444650000000     0.333333333333     0          
T        Si     0.304500000000     0.445500000000     0.583333333333     0          
T        Si     0.055350000000     0.133100000000     0.333333333333     0          
T        Si     0.054500000000     0.304500000000     0.583333333333     0          
T        Si     0.366900000000     0.055350000000     0.333333333333     0          
T        Si     0.195500000000     0.054500000000     0.583333333333     0          
T        Si     0.444650000000     0.366900000000     0.333333333333     0          
T        Si     0.445500000000     0.195500000000     0.583333333333     0          
T        Si     0.133100000000     0.055350000000     0.333333333333     0          
T        Si     0.304500000000     0.054500000000     0.416666666667     0          
T        Si     0.444650000000     0.133100000000     0.333333333333     0          
T        Si     0.445500000000     0.304500000000     0.416666666667     0          
T        Si     0.366900000000     0.444650000000     0.333333333333     0          
T        Si     0.195500000000     0.445500000000     0.416666666667     0          
T        Si     0.055350000000     0.366900000000     0.333333333333     0          
T        Si     0.054500000000     0.195500000000     0.416666666667     0          
T        Si     0.195500000000     0.054500000000     0.416666666667     0          
T        Si     0.445500000000     0.195500000000     0.416666666667     0          
T        Si     0.304500000000     0.445500000000     0.416666666667     0          
T        Si     0.054500000000     0.304500000000     0.416666666667     0          
T        Si     0.195500000000     0.445500000000     0.583333333333     0          
T        Si     0.054500000000     0.195500000000     0.583333333333     0          
T        Si     0.304500000000     0.054500000000     0.583333333333     0          
T        Si     0.445500000000     0.304500000000     0.583333333333     0          
T        Si     0.383100000000     0.194650000000     0.500000000000     0          
T        Si     0.305350000000     0.383100000000     0.500000000000     0          
T        Si     0.116900000000     0.305350000000     0.500000000000     0          
T        Si     0.194650000000     0.116900000000     0.500000000000     0          
T        Si     0.383100000000     0.305350000000     0.500000000000     0          
T        Si     0.194650000000     0.383100000000     0.500000000000     0          
T        Si     0.116900000000     0.194650000000     0.500000000000     0          
T        Si     0.305350000000     0.116900000000     0.500000000000     0          
T        Si     0.133100000000     0.444650000000     0.666666666667     0          
T        Si     0.304500000000     0.445500000000     0.916666666667     0          
T        Si     0.055350000000     0.133100000000     0.666666666667     0          
T        Si     0.054500000000     0.304500000000     0.916666666667     0          
T        Si     0.366900000000     0.055350000000     0.666666666667     0          
T        Si     0.195500000000     0.054500000000     0.916666666667     0          
T        Si     0.444650000000     0.366900000000     0.666666666667     0          
T        Si     0.445500000000     0.195500000000     0.916666666667     0          
T        Si     0.133100000000     0.055350000000     0.666666666667     0          
T        Si     0.304500000000     0.054500000000     0.750000000000     0          
T        Si     0.444650000000     0.133100000000     0.666666666667     0          
T        Si     0.445500000000     0.304500000000     0.750000000000     0          
T        Si     0.366900000000     0.444650000000     0.666666666667     0          
T        Si     0.195500000000     0.445500000000     0.750000000000     0          
T        Si     0.055350000000     0.366900000000     0.666666666667     0          
T        Si     0.054500000000     0.195500000000     0.750000000000     0          
T        Si     0.195500000000     0.054500000000     0.750000000000     0          
T        Si     0.445500000000     0.195500000000     0.750000000000     0          
T        Si     0.304500000000     0.445500000000     0.750000000000     0          
T        Si     0.054500000000     0.304500000000     0.750000000000     0          
T        Si     0.195500000000     0.445500000000     0.916666666667     0          
T        Si     0.054500000000     0.195500000000     0.916666666667     0          
T        Si     0.304500000000     0.054500000000     0.916666666667     0          
T        Si     0.445500000000     0.304500000000     0.916666666667     0          
T        Si     0.383100000000     0.194650000000     0.833333333333     0          
T        Si     0.305350000000     0.383100000000     0.833333333333     0          
T        Si     0.116900000000     0.305350000000     0.833333333333     0          
T        Si     0.194650000000     0.116900000000     0.833333333333     0          
T        Si     0.383100000000     0.305350000000     0.833333333333     0          
T        Si     0.194650000000     0.383100000000     0.833333333333     0          
T        Si     0.116900000000     0.194650000000     0.833333333333     0          
T        Si     0.305350000000     0.116900000000     0.833333333333     0          
T        Si     0.133100000000     0.944650000000     0.000000000000     0          
T        Si     0.304500000000     0.945500000000     0.250000000000     0          
T        Si     0.055350000000     0.633100000000     0.000000000000     0          
T        Si     0.054500000000     0.804500000000     0.250000000000     0          
T        Si     0.366900000000     0.555350000000     0.000000000000     0          
T        Si     0.195500000000     0.554500000000     0.250000000000     0          
T        Si     0.444650000000     0.866900000000     0.000000000000     0          
T        Si     0.445500000000     0.695500000000     0.250000000000     0          
T        Si     0.133100000000     0.555350000000     0.000000000000     0          
T        Si     0.304500000000     0.554500000000     0.083333333333     0          
T        Si     0.444650000000     0.633100000000     0.000000000000     0          
T        Si     0.445500000000     0.804500000000     0.083333333333     0          
T        Si     0.366900000000     0.944650000000     0.000000000000     0          
T        Si     0.195500000000     0.945500000000     0.083333333333     0          
T        Si     0.055350000000     0.866900000000     0.000000000000     0          
T        Si     0.054500000000     0.695500000000     0.083333333333     0          
T        Si     0.195500000000     0.554500000000     0.083333333333     0          
T        Si     0.445500000000     0.695500000000     0.083333333333     0          
T        Si     0.304500000000     0.945500000000     0.083333333333     0          
T        Si     0.054500000000     0.804500000000     0.083333333333     0          
T        Si     0.195500000000     0.945500000000     0.250000000000     0          
T        Si     0.054500000000     0.695500000000     0.250000000000     0          
T        Si     0.304500000000     0.554500000000     0.250000000000     0          
T        Si     0.445500000000     0.804500000000     0.250000000000     0          
T        Si     0.383100000000     0.694650000000     0.166666666667     0          
T        Si     0.305350000000     0.883100000000     0.166666666667     0          
T        Si     0.116900000000     0.805350000000     0.166666666667     0          
T        Si     0.194650000000     0.616900000000     0.166666666667     0          
T        Si     0.383100000000     0.805350000000     0.166666666667     0          
T        Si     0.194650000000     0.883100000000     0.166666666667     0          
T        Si     0.116900000000     0.694650000000     0.166666666667     0          
T        Si     0.305350000000     0.616900000000     0.166666666667     0          
T        Si     0.133100000000     0.944650000000     0.333333333333     0          
T        Si     0.304500000000     0.945500000000     0.583333333333     0          
T        Si     0.055350000000     0.633100000000     0.333333333333     0          
T        Si     0.054500000000     0.804500000000     0.583333333333     0          
T        Si     0.366900000000     0.555350000000     0.333333333333     0          
T        Si     0.195500000000     0.554500000000     0.583333333333     0          
T        Si     0.444650000000     0.866900000000     0.333333333333     0          
T        Si     0.445500000000     0.695500000000     0.583333333333     0          
T        Si     0.133100000000     0.555350000000     0.333333333333     0          
T        Si     0.304500000000     0.554500000000     0.416666666667     0          
T        Si     0.444650000000     0.633100000000     0.333333333333     0          
T        Si     0.445500000000     0.804500000000     0.416666666667     0          
T        Si     0.366900000000     0.944650000000     0.333333333333     0          
T        Si     0.195500000000     0.945500000000     0.416666666667     0          
T        Si     0.055350000000     0.866900000000     0.333333333333     0          
T        Si     0.054500000000     0.695500000000     0.416666666667     0          
T        Si     0.195500000000     0.554500000000     0.416666666667     0          
T        Si     0.445500000000     0.695500000000     0.416666666667     0          
T        Si     0.304500000000     0.945500000000     0.416666666667     0          
T        Si     0.054500000000     0.804500000000     0.416666666667     0          
T        Si     0.195500000000     0.945500000000     0.583333333333     0          
T        Si     0.054500000000     0.695500000000     0.583333333333     0          
T        Si     0.304500000000     0.554500000000     0.583333333333     0          
T        Si     0.445500000000     0.804500000000     0.583333333333     0          
T        Si     0.383100000000     0.694650000000     0.500000000000     0          
T        Si     0.305350000000     0.883100000000     0.500000000000     0          
T        Si     0.116900000000     0.805350000000     0.500000000000     0          
T        Si     0.194650000000     0.616900000000     0.500000000000     0          
T        Si     0.383100000000     0.805350000000     0.500000000000     0          
T        Si     0.194650000000     0.883100000000     0.500000000000     0          
T        Si     0.116900000000     0.694650000000     0.500000000000     0          
T        Si     0.305350000000     0.616900000000     0.500000000000     0          
T        Si     0.133100000000     0.944650000000     0.666666666667     0          
T        Si     0.304500000000     0.945500000000     0.916666666667     0          
T        Si     0.055350000000     0.633100000000     0.666666666667     0          
T        Si     0.054500000000     0.804500000000     0.916666666667     0          
T        Si     0.366900000000     0.555350000000     0.666666666667     0          
T        Si     0.195500000000     0.554500000000     0.916666666667     0          
T        Si     0.444650000000     0.866900000000     0.666666666667     0          
T        Si     0.445500000000     0.695500000000     0.916666666667     0          
T        Si     0.133100000000     0.555350000000     0.666666666667     0          
T        Si     0.304500000000     0.554500000000     0.750000000000     0          
T        Si     0.444650000000     0.633100000000     0.666666666667     0          
T        Si     0.445500000000     0.804500000000     0.750000000000     0          
T        Si     0.366900000000     0.944650000000     0.666666666667     0          
T        Si     0.195500000000     0.945500000000     0.750000000000     0          
T        Si     0.055350000000     0.866900000000     0.666666666667     0          
T        Si     0.054500000000     0.695500000000     0.750000000000     0          
T        Si     0.195500000000     0.554500000000     0.750000000000     0          
T        Si     0.445500000000     0.695500000000     0.750000000000     0          
T        Si     0.304500000000     0.945500000000     0.750000000000     0          
T        Si     0.054500000000     0.804500000000     0.750000000000     0          
T        Si     0.195500000000     0.945500000000     0.916666666667     0          
T        Si     0.054500000000     0.695500000000     0.916666666667     0          
T        Si     0.304500000000     0.554500000000     0.916666666667     0          
T        Si     0.445500000000     0.804500000000     0.916666666667     0          
T        Si     0.383100000000     0.694650000000     0.833333333333     0          
T        Si     0.305350000000     0.883100000000     0.833333333333     0          
T        Si     0.116900000000     0.805350000000     0.833333333333     0          
T        Si     0.194650000000     0.616900000000     0.833333333333     0          
T        Si     0.383100000000     0.805350000000     0.833333333333     0          
T        Si     0.194650000000     0.883100000000     0.833333333333     0          
T        Si     0.116900000000     0.694650000000     0.833333333333     0          
T        Si     0.305350000000     0.616900000000     0.833333333333     0          
T        Si     0.633100000000     0.444650000000     0.000000000000     0          
T        Si     0.804500000000     0.445500000000     0.250000000000     0          
T        Si     0.555350000000     0.133100000000     0.000000000000     0          
T        Si     0.554500000000     0.304500000000     0.250000000000     0          
T        Si     0.866900000000     0.055350000000     0.000000000000     0          
T        Si     0.695500000000     0.054500000000     0.250000000000     0          
T        Si     0.944650000000     0.366900000000     0.000000000000     0          
T        Si     0.945500000000     0.195500000000     0.250000000000     0          
T        Si     0.633100000000     0.055350000000     0.000000000000     0          
T        Si     0.804500000000     0.054500000000     0.083333333333     0          
T        Si     0.944650000000     0.133100000000     0.000000000000     0          
T        Si     0.945500000000     0.304500000000     0.083333333333     0          
T        Si     0.866900000000     0.444650000000     0.000000000000     0          
T        Si     0.695500000000     0.445500000000     0.083333333333     0          
T        Si     0.555350000000     0.366900000000     0.000000000000     0          
T        Si     0.554500000000     0.195500000000     0.083333333333     0          
T        Si     0.695500000000     0.054500000000     0.083333333333     0          
T        Si     0.945500000000     0.195500000000     0.083333333333     0          
T        Si     0.804500000000     0.445500000000     0.083333333333     0          
T        Si     0.554500000000     0.304500000000     0.083333333333     0          
T        Si     0.695500000000     0.445500000000     0.250000000000     0          
T        Si     0.554500000000     0.195500000000     0.250000000000     0          
T        Si     0.804500000000     0.054500000000     0.250000000000     0          
T        Si     0.945500000000     0.304500000000     0.250000000000     0          
T        Si     0.883100000000     0.194650000000     0.166666666667     0          
T        Si     0.805350000000     0.383100000000     0.166666666667     0          
T        Si     0.616900000000     0.305350000000     0.166666666667     0          
T        Si     0.694650000000     0.116900000000     0.166666666667     0          
T        Si     0.883100000000     0.305350000000     0.166666666667     0          
T        Si     0.694650000000     0.383100000000     0.166666666667     0          
T        Si     0.616900000000     0.194650000000     0.166666666667     0          
T        Si     0.805350000000     0.116900000000     0.166666666667     0          
T        Si     0.633100000000     0.444650000000     0.333333333333     0          
T        Si     0.804500000000     0.445500000000     0.583333333333     0          
T        Si     0.555350000000     0.133100000000     0.333333333333     0          
T        Si     0.554500000000     0.304500000000     0.583333333333     0          
T        Si     0.866900000000     0.055350000000     0.333333333333     0          
T        Si     0.695500000000     0.054500000000     0.583333333333     0          
T        Si     0.944650000000     0.366900000000     0.333333333333     0          
T        Si     0.945500000000     0.195500000000     0.583333333333     0          
T        Si     0.633100000000     0.055350000000     0.333333333333     0          
T        Si     0.804500000000     0.054500000000     0.416666666667     0          
T        Si     0.944650000000     0.133100000000     0.333333333333     0          
T        Si     0.945500000000     0.304500000000     0.416666666667     0          
T        Si     0.866900000000     0.444650000000     0.333333333333     0          
T        Si     0.695500000000     0.445500000000     0.416666666667     0          
T        Si     0.555350000000     0.366900000000     0.333333333333     0          
T        Si     0.554500000000     0.195500000000     0.416666666667     0          
T        Si     0.695500000000     0.054500000000     0.416666666667     0          
T        Si     0.945500000000     0.195500000000     0.416666666667     0          
T        Si     0.804500000000     0.445500000000     0.416666666667     0          
T        Si     0.554500000000     0.304500000000     0.416666666667     0          
T        Si     0.695500000000     0.445500000000     0.583333333333     0          
T        Si     0.554500000000     0.195500000000     0.583333333333     0          
T        Si     0.804500000000     0.054500000000     0.583333333333     0          
T        Si     0.945500000000     0.304500000000     0.583333333333     0          
T        Si     0.883100000000     0.194650000000     0.500000000000     0          
T        Si     0.805350000000     0.383100000000     0.500000000000     0          
T        Si     0.616900000000     0.305350000000     0.500000000000     0          
T        Si     0.694650000000     0.116900000000     0.500000000000     0          
T        Si     0.883100000000     0.305350000000     0.500000000000     0          
T        Si     0.694650000000     0.383100000000     0.500000000000     0          
T        Si     0.616900000000     0.194650000000     0.500000000000     0          
T        Si     0.805350000000     0.116900000000     0.500000000000     0          
T        Si     0.633100000000     0.444650000000     0.666666666667     0          
T        Si     0.804500000000     0.445500000000     0.916666666667     0          
T        Si     0.555350000000     0.133100000000     0.666666666667     0          
T        Si     0.554500000000     0.304500000000     0.916666666667     0          
T        Si     0.866900000000     0.055350000000     0.666666666667     0          
T        Si     0.695500000000     0.054500000000     0.916666666667     0          
T        Si     0.944650000000     0.366900000000     0.666666666667     0          
T        Si     0.945500000000     0.195500000000     0.916666666667     0          
T        Si     0.633100000000     0.055350000000     0.666666666667     0          
T        Si     0.804500000000     0.054500000000     0.750000000000     0          
T        Si     0.944650000000     0.133100000000     0.666666666667     0          
T        Si     0.945500000000     0.304500000000     0.750000000000     0          
T        Si     0.866900000000     0.444650000000     0.666666666667     0          
T        Si     0.695500000000     0.445500000000     0.750000000000     0          
T        Si     0.555350000000     0.366900000000     0.666666666667     0          
T        Si     0.554500000000     0.195500000000     0.750000000000     0          
T        Si     0.695500000000     0.054500000000     0.750000000000     0          
T        Si     0.945500000000     0.195500000000     0.750000000000     0          
T        Si     0.804500000000     0.445500000000     0.750000000000     0          
T        Si     0.554500000000     0.304500000000     0.750000000000     0          
T        Si     0.695500000000     0.445500000000     0.916666666667     0          
T        Si     0.554500000000     0.195500000000     0.916666666667     0          
T        Si     0.804500000000     0.054500000000     0.916666666667     0          
T        Si     0.945500000000     0.304500000000     0.916666666667     0          
T        Si     0.883100000000     0.194650000000     0.833333333333     0          
T        Si     0.805350000000     0.383100000000     0.833333333333     0          
T        Si     0.616900000000     0.305350000000     0.833333333333     0          
T        Si     0.694650000000     0.116900000000     0.833333333333     0          
T        Si     0.883100000000     0.305350000000     0.833333333333     0          
T        Si     0.694650000000     0.383100000000     0.833333333333     0          
T        Si     0.616900000000     0.194650000000     0.833333333333     0          
T        Si     0.805350000000     0.116900000000     0.833333333333     0          
T        Si     0.633100000000     0.944650000000     0.000000000000     0          
T        Si     0.804500000000     0.945500000000     0.250000000000     0          
T        Si     0.555350000000     0.633100000000     0.000000000000     0          
T        Si     0.554500000000     0.804500000000     0.250000000000     0          
T        Si     0.866900000000     0.555350000000     0.000000000000     0          
T        Si     0.695500000000     0.554500000000     0.250000000000     0          
T        Si     0.944650000000     0.866900000000     0.000000000000     0          
T        Si     0.945500000000     0.695500000000     0.250000000000     0          
T        Si     0.633100000000     0.555350000000     0.000000000000     0          
T        Si     0.804500000000     0.554500000000     0.083333333333     0          
T        Si     0.944650000000     0.633100000000     0.000000000000     0          
T        Si     0.945500000000     0.804500000000     0.083333333333     0          
T        Si     0.866900000000     0.944650000000     0.000000000000     0          
T        Si     0.695500000000     0.945500000000     0.083333333333     0          
T        Si     0.555350000000     0.866900000000     0.000000000000     0          
T        Si     0.554500000000     0.695500000000     0.083333333333     0          
T        Si     0.695500000000     0.554500000000     0.083333333333     0          
T        Si     0.945500000000     0.695500000000     0.083333333333     0          
T        Si     0.804500000000     0.945500000000     0.083333333333     0          
T        Si     0.554500000000     0.804500000000     0.083333333333     0          
T        Si     0.695500000000     0.945500000000     0.250000000000     0          
T        Si     0.554500000000     0.695500000000     0.250000000000     0          
T        Si     0.804500000000     0.554500000000     0.250000000000     0          
T        Si     0.945500000000     0.804500000000     0.250000000000     0          
T        Si     0.883100000000     0.694650000000     0.166666666667     0          
T        Si     0.805350000000     0.883100000000     0.166666666667     0          
T        Si     0.616900000000     0.805350000000     0.166666666667     0          
T        Si     0.694650000000     0.616900000000     0.166666666667     0          
T        Si     0.883100000000     0.805350000000     0.166666666667     0          
T        Si     0.694650000000     0.883100000000     0.166666666667     0          
T        Si     0.616900000000     0.694650000000     0.166666666667     0          
T        Si     0.805350000000     0.616900000000     0.166666666667     0          
T        Si     0.633100000000     0.944650000000     0.333333333333     0          
T        Si     0.804500000000     0.945500000000     0.583333333333     0          
T        Si     0.555350000000     0.633100000000     0.333333333333     0          
T        Si     0.554500000000     0.804500000000     0.583333333333     0          
T        Si     0.866900000000     0.555350000000     0.333333333333     0          
T        Si     0.695500000000     0.554500000000     0.583333333333     0          
T        Si     0.944650000000     0.866900000000     0.333333333333     0          
T        Si     0.945500000000     0.695500000000     0.583333333333     0          
T        Si     0.633100000000     0.555350000000     0.333333333333     0          
T        Si     0.804500000000     0.554500000000     0.416666666667     0          
T        Si     0.944650000000     0.633100000000     0.333333333333     0          
T        Si     0.945500000000     0.804500000000     0.416666666667     0          
T        Si     0.866900000000     0.944650000000     0.333333333333     0          
T        Si     0.695500000000     0.945500000000     0.416666666667     0          
T        Si     0.555350000000     0.866900000000     0.333333333333     0          
T        Si     0.554500000000     0.695500000000     0.416666666667     0          
T        Si     0.695500000000     0.554500000000     0.416666666667     0          
T        Si     0.945500000000     0.695500000000     0.416666666667     0          
T        Si     0.804500000000     0.945500000000     0.416666666667     0          
T        Si     0.554500000000     0.804500000000     0.416666666667     0          
T        Si     0.695500000000     0.945500000000     0.583333333333     0          
T        Si     0.554500000000     0.695500000000     0.583333333333     0          
T        Si     0.804500000000     0.554500000000     0.583333333333     0          
T        Si     0.945500000000     0.804500000000     0.583333333333     0          
T        Si     0.883100000000     0.694650000000     0.500000000000     0          
T        Si     0.805350000000     0.883100000000     0.500000000000     0          
T        Si     0.616900000000     0.805350000000     0.500000000000     0          
T        Si     0.694650000000     0.616900000000     0.500000000000     0          
T        Si     0.883100000000     0.805350000000     0.500000000000     0          
T        Si     0.694650000000     0.883100000000     0.500000000000     0          
T        Si     0.616900000000     0.694650000000     0.500000000000     0          
T        Si     0.805350000000     0.616900000000     0.500000000000     0          
T        Si     0.633100000000     0.944650000000     0.666666666667     0          
T        Si     0.804500000000     0.945500000000     0.916666666667     0          
T        Si     0.555350000000     0.633100000000     0.666666666667     0          
T        Si     0.554500000000     0.804500000000     0.916666666667     0          
T        Si     0.866900000000     0.555350000000     0.666666666667     0          
T        Si     0.695500000000     0.554500000000     0.916666666667     0          
T        Si     0.944650000000     0.866900000000     0.666666666667     0          
T        Si     0.945500000000     0.695500000000     0.916666666667     0          
T        Si     0.633100000000     0.555350000000     0.666666666667     0          
T        Si     0.804500000000     0.554500000000     0.750000000000     0          
T        Si     0.944650000000     0.633100000000     0.666666666667     0          
T        Si     0.945500000000     0.804500000000     0.750000000000     0          
T        Si     0.866900000000     0.944650000000     0.666666666667     0          
T        Si     0.695500000000     0.945500000000     0.750000000000     0          
T        Si     0.555350000000     0.866900000000     0.666666666667     0          
T        Si     0.554500000000     0.695500000000     0.750000000000     0          
T        Si     0.695500000000     0.554500000000     0.750000000000     0          
T        Si     0.945500000000     0.695500000000     0.750000000000     0          
T        Si     0.804500000000     0.945500000000     0.750000000000     0          
T        Si     0.554500000000     0.804500000000     0.750000000000     0          
T        Si     0.695500000000     0.945500000000     0.916666666667     0          
T        Si     0.554500000000     0.695500000000     0.916666666667     0          
T        Si     0.804500000000     0.554500000000     0.916666666667     0          
T        Si     0.945500000000     0.804500000000     0.916666666667     0          
T        Si     0.883100000000     0.694650000000     0.833333333333     0          
T        Si     0.805350000000     0.883100000000     0.833333333333     0          
T        Si     0.616900000000     0.805350000000     0.833333333333     0          
T        Si     0.694650000000     0.616900000000     0.833333333333     0          
T        Si     0.883100000000     0.805350000000     0.833333333333     0          
T        Si     0.694650000000     0.883100000000     0.833333333333     0          
T        Si     0.616900000000     0.694650000000     0.833333333333     0          
T        Si     0.805350000000     0.616900000000     0.833333333333     0          
O        O      0.120900000000     0.000000000000     0.000000000000     0          
O        O      0.084500000000     0.084500000000     0.000000000000     0          
O        O      0.250000000000     0.437250000000     0.262166666667     0          
O        O      0.163050000000     0.431450000000     0.290766666667     0          
O        O      0.000000000000     0.120900000000     0.000000000000     0          
O        O      0.415500000000     0.084500000000     0.000000000000     0          
O        O      0.062750000000     0.250000000000     0.262166666667     0          
O        O      0.068550000000     0.163050000000     0.290766666667     0          
O        O      0.379100000000     0.000000000000     0.000000000000     0          
O        O      0.415500000000     0.415500000000     0.000000000000     0          
O        O      0.250000000000     0.062750000000     0.262166666667     0          
O        O      0.336950000000     0.068550000000     0.290766666667     0          
O        O      0.000000000000     0.379100000000     0.000000000000     0          
O        O      0.084500000000     0.415500000000     0.000000000000     0          
O        O      0.437250000000     0.250000000000     0.262166666667     0          
O        O      0.431450000000     0.336950000000     0.290766666667     0          
O        O      0.250000000000     0.062750000000     0.071166666667     0          
O        O      0.163050000000     0.068550000000     0.042566666667     0          
O        O      0.437250000000     0.250000000000     0.071166666667     0          
O        O      0.431450000000     0.163050000000     0.042566666667     0          
O        O      0.250000000000     0.437250000000     0.071166666667     0          
O        O      0.336950000000     0.431450000000     0.042566666667     0          
O        O      0.062750000000     0.250000000000     0.071166666667     0          
O        O      0.068550000000     0.336950000000     0.042566666667     0          
O        O      0.336950000000     0.068550000000     0.042566666667     0          
O        O      0.431450000000     0.336950000000     0.042566666667     0          
O        O      0.163050000000     0.431450000000     0.042566666667     0          
O        O      0.068550000000     0.163050000000     0.042566666667     0          
O        O      0.336950000000     0.431450000000     0.290766666667     0          
O        O      0.068550000000     0.336950000000     0.290766666667     0          
O        O      0.163050000000     0.068550000000     0.290766666667     0          
O        O      0.431450000000     0.163050000000     0.290766666667     0          
O        O      0.370900000000     0.250000000000     0.166666666667     0          
O        O      0.334500000000     0.334500000000     0.166666666667     0          
O        O      0.000000000000     0.187250000000     0.095500000000     0          
O        O      0.413050000000     0.181450000000     0.124100000000     0          
O        O      0.250000000000     0.370900000000     0.166666666667     0          
O        O      0.165500000000     0.334500000000     0.166666666667     0          
O        O      0.312750000000     0.000000000000     0.095500000000     0          
O        O      0.318550000000     0.413050000000     0.124100000000     0          
O        O      0.129100000000     0.250000000000     0.166666666667     0          
O        O      0.165500000000     0.165500000000     0.166666666667     0          
O        O      0.000000000000     0.312750000000     0.095500000000     0          
O        O      0.086950000000     0.318550000000     0.124100000000     0          
O        O      0.250000000000     0.129100000000     0.166666666667     0          
O        O      0.334500000000     0.165500000000     0.166666666667     0          
O        O      0.187250000000     0.000000000000     0.095500000000     0          
O        O      0.181450000000     0.086950000000     0.124100000000     0          
O        O      0.000000000000     0.312750000000     0.237833333333     0          
O        O      0.413050000000     0.318550000000     0.209233333333     0          
O        O      0.187250000000     0.000000000000     0.237833333333     0          
O        O      0.181450000000     0.413050000000     0.209233333333     0          
O        O      0.000000000000     0.187250000000     0.237833333333     0          
O        O      0.086950000000     0.181450000000     0.209233333333     0          
O        O      0.312750000000     0.000000000000     0.237833333333     0          
O        O      0.318550000000     0.086950000000     0.209233333333     0          
O        O      0.086950000000     0.318550000000     0.209233333333     0          
O        O      0.181450000000     0.086950000000     0.209233333333     0          
O        O      0.413050000000     0.181450000000     0.209233333333     0          
O        O      0.318550000000     0.413050000000     0.209233333333     0          
O        O      0.086950000000     0.181450000000     0.124100000000     0          
O        O      0.318550000000     0.086950000000     0.124100000000     0          
O        O      0.413050000000     0.318550000000     0.124100000000     0          
O        O      0.181450000000     0.413050000000     0.124100000000     0          
O        O      0.120900000000     0.000000000000     0.333333333333     0          
O        O      0.084500000000     0.084500000000     0.333333333333     0          
O        O      0.250000000000     0.437250000000     0.595500000000     0          
O        O      0.163050000000     0.431450000000     0.624100000000     0          
O        O      0.000000000000     0.120900000000     0.333333333333     0          
O        O      0.415500000000     0.084500000000     0.333333333333     0          
O        O      0.062750000000     0.250000000000     0.595500000000     0          
O        O      0.068550000000     0.163050000000     0.624100000000     0          
O        O      0.379100000000     0.000000000000     0.333333333333     0          
O        O      0.415500000000     0.415500000000     0.333333333333     0          
O        O      0.250000000000     0.062750000000     0.595500000000     0          
O        O      0.336950000000     0.068550000000     0.624100000000     0          
O        O      0.000000000000     0.379100000000     0.333333333333     0          
O        O      0.084500000000     0.415500000000     0.333333333333     0          
O        O      0.437250000000     0.250000000000     0.595500000000     0          
O        O      0.431450000000     0.336950000000     0.624100000000     0          
O        O      0.250000000000     0.062750000000     0.404500000000     0          
O        O      0.163050000000     0.068550000000     0.375900000000     0          
O        O      0.437250000000     0.250000000000     0.404500000000     0          
O        O      0.431450000000     0.163050000000     0.375900000000     0          
O        O      0.250000000000     0.437250000000     0.404500000000     0          
O        O      0.336950000000     0.431450000000     0.375900000000     0          
O        O      0.062750000000     0.250000000000     0.404500000000     0          
O        O      0.068550000000     0.336950000000     0.375900000000     0          
O        O      0.336950000000     0.068550000000     0.375900000000     0          
O        O      0.431450000000     0.336950000000     0.375900000000     0          
O        O      0.163050000000     0.431450000000     0.375900000000     0          
O        O      0.068550000000     0.163050000000     0.375900000000     0          
O        O      0.336950000000     0.431450000000     0.624100000000     0          
O        O      0.068550000000     0.336950000000     0.624100000000     0          
O        O      0.163050000000     0.068550000000     0.624100000000     0          
O        O      0.431450000000     0.163050000000     0.624100000000     0          
O        O      0.370900000000     0.250000000000     0.500000000000     0          
O        O      0.334500000000     0.334500000000     0.500000000000     0          
O        O      0.000000000000     0.187250000000     0.428833333333     0          
O        O      0.413050000000     0.181450000000     0.457433333333     0          
O        O      0.250000000000     0.370900000000     0.500000000000     0          
O        O      0.165500000000     0.334500000000     0.500000000000     0          
O        O      0.312750000000     0.000000000000     0.428833333333     0          
O        O      0.318550000000     0.413050000000     0.457433333333     0          
O        O      0.129100000000     0.250000000000     0.500000000000     0          
O        O      0.165500000000     0.165500000000     0.500000000000     0          
O        O      0.000000000000     0.312750000000     0.428833333333     0          
O        O      0.086950000000     0.318550000000     0.457433333333     0          
O        O      0.250000000000     0.129100000000     0.500000000000     0          
O        O      0.334500000000     0.165500000000     0.500000000000     0          
O        O      0.187250000000     0.000000000000     0.428833333333     0          
O        O      0.181450000000     0.086950000000     0.457433333333     0          
O        O      0.000000000000     0.312750000000     0.571166666667     0          
O        O      0.413050000000     0.318550000000     0.542566666667     0          
O        O      0.187250000000     0.000000000000     0.571166666667     0          
O        O      0.181450000000     0.413050000000     0.542566666667     0          
O        O      0.000000000000     0.187250000000     0.571166666667     0          
O        O      0.086950000000     0.181450000000     0.542566666667     0          
O        O      0.312750000000     0.000000000000     0.571166666667     0          
O        O      0.318550000000     0.086950000000     0.542566666667     0          
O        O      0.086950000000     0.318550000000     0.542566666667     0          
O        O      0.181450000000     0.086950000000     0.542566666667     0          
O        O      0.413050000000     0.181450000000     0.542566666667     0          
O        O      0.318550000000     0.413050000000     0.542566666667     0          
O        O      0.086950000000     0.181450000000     0.457433333333     0          
O        O      0.318550000000     0.086950000000     0.457433333333     0          
O        O      0.413050000000     0.318550000000     0.457433333333     0          
O        O      0.181450000000     0.413050000000     0.457433333333     0          
O        O      0.120900000000     0.000000000000     0.666666666667     0          
O        O      0.084500000000     0.084500000000     0.666666666667     0          
O        O      0.250000000000     0.437250000000     0.928833333333     0          
O        O      0.163050000000     0.431450000000     0.957433333333     0          
O        O      0.000000000000     0.120900000000     0.666666666667     0          
O        O      0.415500000000     0.084500000000     0.666666666667     0          
O        O      0.062750000000     0.250000000000     0.928833333333     0          
O        O      0.068550000000     0.163050000000     0.957433333333     0          
O        O      0.379100000000     0.000000000000     0.666666666667     0          
O        O      0.415500000000     0.415500000000     0.666666666667     0          
O        O      0.250000000000     0.062750000000     0.928833333333     0          
O        O      0.336950000000     0.068550000000     0.957433333333     0          
O        O      0.000000000000     0.379100000000     0.666666666667     0          
O        O      0.084500000000     0.415500000000     0.666666666667     0          
O        O      0.437250000000     0.250000000000     0.928833333333     0          
O        O      0.431450000000     0.336950000000     0.957433333333     0          
O        O      0.250000000000     0.062750000000     0.737833333333     0          
O        O      0.163050000000     0.068550000000     0.709233333333     0          
O        O      0.437250000000     0.250000000000     0.737833333333     0          
O        O      0.431450000000     0.163050000000     0.709233333333     0          
O        O      0.250000000000     0.437250000000     0.737833333333     0          
O        O      0.336950000000     0.431450000000     0.709233333333     0          
O        O      0.062750000000     0.250000000000     0.737833333333     0          
O        O      0.068550000000     0.336950000000     0.709233333333     0          
O        O      0.336950000000     0.068550000000     0.709233333333     0          
O        O      0.431450000000     0.336950000000     0.709233333333     0          
O        O      0.163050000000     0.431450000000     0.709233333333     0          
O        O      0.068550000000     0.163050000000     0.709233333333     0          
O        O      0.336950000000     0.431450000000     0.957433333333     0          
O        O      0.068550000000     0.336950000000     0.957433333333     0          
O        O      0.163050000000     0.068550000000     0.957433333333     0          
O        O      0.431450000000     0.163050000000     0.957433333333     0          
O        O      0.370900000000     0.250000000000     0.833333333333     0          
O        O      0.334500000000     0.334500000000     0.833333333333     0          
O        O      0.000000000000     0.187250000000     0.762166666667     0          
O        O      0.413050000000     0.181450000000     0.790766666667     0          
O        O      0.250000000000     0.370900000000     0.833333333333     0          
O        O      0.165500000000     0.334500000000     0.833333333333     0          
O        O      0.312750000000     0.000000000000     0.762166666667     0          
O        O      0.318550000000     0.413050000000     0.790766666667     0          
O        O      0.129100000000     0.250000000000     0.833333333333     0          
O        O      0.165500000000     0.165500000000     0.833333333333     0          
O        O      0.000000000000     0.312750000000     0.762166666667     0          
O        O      0.086950000000     0.318550000000     0.790766666667     0          
O        O      0.250000000000     0.129100000000     0.833333333333     0          
O        O      0.334500000000     0.165500000000     0.833333333333     0          
O        O      0.187250000000     0.000000000000     0.762166666667     0          
O        O      0.181450000000     0.086950000000     0.790766666667     0          
O        O      0.000000000000     0.312750000000     0.904500000000     0          
O        O      0.413050000000     0.318550000000     0.875900000000     0          
O        O      0.187250000000     0.000000000000     0.904500000000     0          
O        O      0.181450000000     0.413050000000     0.875900000000     0          
O        O      0.000000000000     0.187250000000     0.904500000000     0          
O        O      0.086950000000     0.181450000000     0.875900000000     0          
O        O      0.312750000000     0.000000000000     0.904500000000     0          
O        O      0.318550000000     0.086950000000     0.875900000000     0          
O        O      0.086950000000     0.318550000000     0.875900000000     0          
O        O      0.181450000000     0.086950000000     0.875900000000     0          
O        O      0.413050000000     0.181450000000     0.875900000000     0          
O        O      0.318550000000     0.413050000000     0.875900000000     0          
O        O      0.086950000000     0.181450000000     0.790766666667     0          
O        O      0.318550000000     0.086950000000     0.790766666667     0          
O        O      0.413050000000     0.318550000000     0.790766666667     0          
O        O      0.181450000000     0.413050000000     0.790766666667     0          
O        O      0.120900000000     0.500000000000     0.000000000000     0          
O        O      0.084500000000     0.584500000000     0.000000000000     0          
O        O      0.250000000000     0.937250000000     0.262166666667     0          
O        O      0.163050000000     0.931450000000     0.290766666667     0          
O        O      0.000000000000     0.620900000000     0.000000000000     0          
O        O      0.415500000000     0.584500000000     0.000000000000     0          
O        O      0.062750000000     0.750000000000     0.262166666667     0          
O        O      0.068550000000     0.663050000000     0.290766666667     0          
O        O      0.379100000000     0.500000000000     0.000000000000     0          
O        O      0.415500000000     0.915500000000     0.000000000000     0          
O        O      0.250000000000     0.562750000000     0.262166666667     0          
O        O      0.336950000000     0.568550000000     0.290766666667     0          
O        O      0.000000000000     0.879100000000     0.000000000000     0          
O        O      0.084500000000     0.915500000000     0.000000000000     0          
O        O      0.437250000000     0.750000000000     0.262166666667     0          
O        O      0.431450000000     0.836950000000     0.290766666667     0          
O        O      0.250000000000     0.562750000000     0.071166666667     0          
O        O      0.163050000000     0.568550000000     0.042566666667     0          
O        O      0.437250000000     0.750000000000     0.071166666667     0          
O        O      0.431450000000     0.663050000000     0.042566666667     0          
O        O      0.250000000000     0.937250000000     0.071166666667     0          
O        O      0.336950000000     0.931450000000     0.042566666667     0          
O        O      0.062750000000     0.750000000000     0.071166666667     0          
O        O      0.068550000000     0.836950000000     0.042566666667     0          
O        O      0.336950000000     0.568550000000     0.042566666667     0          
O        O      0.431450000000     0.836950000000     0.042566666667     0          
O        O      0.163050000000     0.931450000000     0.042566666667     0          
O        O      0.068550000000     0.663050000000     0.042566666667     0          
O        O      0.336950000000     0.931450000000     0.290766666667     0          
O        O      0.068550000000     0.836950000000     0.290766666667     0          
O        O      0.163050000000     0.568550000000     0.290766666667     0          
O        O      0.431450000000     0.663050000000     0.290766666667     0          
O        O      0.370900000000     0.750000000000     0.166666666667     0          
O        O      0.334500000000     0.834500000000     0.166666666667     0          
O        O      0.000000000000     0.687250000000     0.095500000000     0          
O        O      0.413050000000     0.681450000000     0.124100000000     0          
O        O      0.250000000000     0.870900000000     0.166666666667     0          
O        O      0.165500000000     0.834500000000     0.166666666667     0          
O        O      0.312750000000     0.500000000000     0.095500000000     0          
O        O      0.318550000000     0.913050000000     0.124100000000     0          
O        O      0.129100000000     0.750000000000     0.166666666667     0          
O        O      0.165500000000     0.665500000000     0.166666666667     0          
O        O      0.000000000000     0.812750000000     0.095500000000     0          
O        O      0.086950000000     0.818550000000     0.124100000000     0          
O        O      0.250000000000     0.629100000000     0.166666666667     0          
O        O      0.334500000000     0.665500000000     0.166666666667     0          
O        O      0.187250000000     0.500000000000     0.095500000000     0          
O        O      0.181450000000     0.586950000000     0.124100000000     0          
O        O      0.000000000000     0.812750000000     0.237833333333     0          
O        O      0.413050000000     0.818550000000     0.209233333333     0          
O        O      0.187250000000     0.500000000000     0.237833333333     0          
O        O      0.181450000000     0.913050000000     0.209233333333     0          
O        O      0.000000000000     0.687250000000     0.237833333333     0          
O        O      0.086950000000     0.681450000000     0.209233333333     0          
O        O      0.312750000000     0.500000000000     0.237833333333     0          
O        O      0.318550000000     0.586950000000     0.209233333333     0          
O        O      0.086950000000     0.818550000000     0.209233333333     0          
O        O      0.181450000000     0.586950000000     0.209233333333     0          
O        O      0.413050000000     0.681450000000     0.209233333333     0          
O        O      0.318550000000     0.913050000000     0.209233333333     0          
O        O      0.086950000000     0.681450000000     0.124100000000     0          
O        O      0.318550000000     0.586950000000     0.124100000000     0          
O        O      0.413050000000     0.818550000000     0.124100000000     0          
O        O      0.181450000000     0.913050000000     0.124100000000     0          
O        O      0.120900000000     0.500000000000     0.333333333333     0          
O        O      0.084500000000     0.584500000000     0.333333333333     0          
O        O      0.250000000000     0.937250000000     0.595500000000     0          
O        O      0.163050000000     0.931450000000     0.624100000000     0          
O        O      0.000000000000     0.620900000000     0.333333333333     0          
O        O      0.415500000000     0.584500000000     0.333333333333     0          
O        O      0.062750000000     0.750000000000     0.595500000000     0          
O        O      0.068550000000     0.663050000000     0.624100000000     0          
O        O      0.379100000000     0.500000000000     0.333333333333     0          
O        O      0.415500000000     0.915500000000     0.333333333333     0          
O        O      0.250000000000     0.562750000000     0.595500000000     0          
O        O      0.336950000000     0.568550000000     0.624100000000     0          
O        O      0.000000000000     0.879100000000     0.333333333333     0          
O        O      0.084500000000     0.915500000000     0.333333333333     0          
O        O      0.437250000000     0.750000000000     0.595500000000     0          
O        O      0.431450000000     0.836950000000     0.624100000000     0          
O        O      0.250000000000     0.562750000000     0.404500000000     0          
O        O      0.163050000000     0.568550000000     0.375900000000     0          
O        O      0.437250000000     0.750000000000     0.404500000000     0          
O        O      0.431450000000     0.663050000000     0.375900000000     0          
O        O      0.250000000000     0.937250000000     0.404500000000     0          
O        O      0.336950000000     0.931450000000     0.375900000000     0          
O        O      0.062750000000     0.750000000000     0.404500000000     0          
O        O      0.068550000000     0.836950000000     0.375900000000     0          
O        O      0.336950000000     0.568550000000     0.375900000000     0          
O        O      0.431450000000     0.836950000000     0.375900000000     0          
O        O      0.163050000000     0.931450000000     0.375900000000     0          
O        O      0.068550000000     0.663050000000     0.375900000000     0          
O        O      0.336950000000     0.931450000000     0.624100000000     0          
O        O      0.068550000000     0.836950000000     0.624100000000     0          
O        O      0.163050000000     0.568550000000     0.624100000000     0          
O        O      0.431450000000     0.663050000000     0.624100000000     0          
O        O      0.370900000000     0.750000000000     0.500000000000     0          
O        O      0.334500000000     0.834500000000     0.500000000000     0          
O        O      0.000000000000     0.687250000000     0.428833333333     0          
O        O      0.413050000000     0.681450000000     0.457433333333     0          
O        O      0.250000000000     0.870900000000     0.500000000000     0          
O        O      0.165500000000     0.834500000000     0.500000000000     0          
O        O      0.312750000000     0.500000000000     0.428833333333     0          
O        O      0.318550000000     0.913050000000     0.457433333333     0          
O        O      0.129100000000     0.750000000000     0.500000000000     0          
O        O      0.165500000000     0.665500000000     0.500000000000     0          
O        O      0.000000000000     0.812750000000     0.428833333333     0          
O        O      0.086950000000     0.818550000000     0.457433333333     0          
O        O      0.250000000000     0.629100000000     0.500000000000     0          
O        O      0.334500000000     0.665500000000     0.500000000000     0          
O        O      0.187250000000     0.500000000000     0.428833333333     0          
O        O      0.181450000000     0.586950000000     0.457433333333     0          
O        O      0.000000000000     0.812750000000     0.571166666667     0          
O        O      0.413050000000     0.818550000000     0.542566666667     0          
O        O      0.187250000000     0.500000000000     0.571166666667     0          
O        O      0.181450000000     0.913050000000     0.542566666667     0          
O        O      0.000000000000     0.687250000000     0.571166666667     0          
O        O      0.086950000000     0.681450000000     0.542566666667     0          
O        O      0.312750000000     0.500000000000     0.571166666667     0          
O        O      0.318550000000     0.586950000000     0.542566666667     0          
O        O      0.086950000000     0.818550000000     0.542566666667     0          
O        O      0.181450000000     0.586950000000     0.542566666667     0          
O        O      0.413050000000     0.681450000000     0.542566666667     0          
O        O      0.318550000000     0.913050000000     0.542566666667     0          
O        O      0.086950000000     0.681450000000     0.457433333333     0          
O        O      0.318550000000     0.586950000000     0.457433333333     0          
O        O      0.413050000000     0.818550000000     0.457433333333     0          
O        O      0.181450000000     0.913050000000     0.457433333333     0          
O        O      0.120900000000     0.500000000000     0.666666666667     0          
O        O      0.084500000000     0.584500000000     0.666666666667     0          
O        O      0.250000000000     0.937250000000     0.928833333333     0          
O        O      0.163050000000     0.931450000000     0.957433333333     0          
O        O      0.000000000000     0.620900000000     0.666666666667     0          
O        O      0.415500000000     0.584500000000     0.666666666667     0          
O        O      0.062750000000     0.750000000000     0.928833333333     0          
O        O      0.068550000000     0.663050000000     0.957433333333     0          
O        O      0.379100000000     0.500000000000     0.666666666667     0          
O        O      0.415500000000     0.915500000000     0.666666666667     0          
O        O      0.250000000000     0.562750000000     0.928833333333     0          
O        O      0.336950000000     0.568550000000     0.957433333333     0          
O        O      0.000000000000     0.879100000000     0.666666666667     0          
O        O      0.084500000000     0.915500000000     0.666666666667     0          
O        O      0.437250000000     0.750000000000     0.928833333333     0          
O        O      0.431450000000     0.836950000000     0.957433333333     0          
O        O      0.250000000000     0.562750000000     0.737833333333     0          
O        O      0.163050000000     0.568550000000     0.709233333333     0          
O        O      0.437250000000     0.750000000000     0.737833333333     0          
O        O      0.431450000000     0.663050000000     0.709233333333     0          
O        O      0.250000000000     0.937250000000     0.737833333333     0          
O        O      0.336950000000     0.931450000000     0.709233333333     0          
O        O      0.062750000000     0.750000000000     0.737833333333     0          
O        O      0.068550000000     0.836950000000     0.709233333333     0          
O        O      0.336950000000     0.568550000000     0.709233333333     0          
O        O      0.431450000000     0.836950000000     0.709233333333     0          
O        O      0.163050000000     0.931450000000     0.709233333333     0          
O        O      0.068550000000     0.663050000000     0.709233333333     0          
O        O      0.336950000000     0.931450000000     0.957433333333     0          
O        O      0.068550000000     0.836950000000     0.957433333333     0          
O        O      0.163050000000     0.568550000000     0.957433333333     0          
O        O      0.431450000000     0.663050000000     0.957433333333     0          
O        O      0.370900000000     0.750000000000     0.833333333333     0          
O        O      0.334500000000     0.834500000000     0.833333333333     0          
O        O      0.000000000000     0.687250000000     0.762166666667     0          
O        O      0.413050000000     0.681450000000     0.790766666667     0          
O        O      0.250000000000     0.870900000000     0.833333333333     0          
O        O      0.165500000000     0.834500000000     0.833333333333     0          
O        O      0.312750000000     0.500000000000     0.762166666667     0          
O        O      0.318550000000     0.913050000000     0.790766666667     0          
O        O      0.129100000000     0.750000000000     0.833333333333     0          
O        O      0.165500000000     0.665500000000     0.833333333333     0          
O        O      0.000000000000     0.812750000000     0.762166666667     0          
O        O      0.086950000000     0.818550000000     0.790766666667     0          
O        O      0.250000000000     0.629100000000     0.833333333333     0          
O        O      0.334500000000     0.665500000000     0.833333333333     0          
O        O      0.187250000000     0.500000000000     0.762166666667     0          
O        O      0.181450000000     0.586950000000     0.790766666667     0          
O        O      0.000000000000     0.812750000000     0.904500000000     0          
O        O      0.413050000000     0.818550000000     0.875900000000     0          
O        O      0.187250000000     0.500000000000     0.904500000000     0          
O        O      0.181450000000     0.913050000000     0.875900000000     0          
O        O      0.000000000000     0.687250000000     0.904500000000     0          
O        O      0.086950000000     0.681450000000     0.875900000000     0          
O        O      0.312750000000     0.500000000000     0.904500000000     0          
O        O      0.318550000000     0.586950000000     0.875900000000     0          
O        O      0.086950000000     0.818550000000     0.875900000000     0          
O        O      0.181450000000     0.586950000000     0.875900000000     0          
O        O      0.413050000000     0.681450000000     0.875900000000     0          
O        O      0.318550000000     0.913050000000     0.875900000000     0          
O        O      0.086950000000     0.681450000000     0.790766666667     0          
O        O      0.318550000000     0.586950000000     0.790766666667     0          
O        O      0.413050000000     0.818550000000     0.790766666667     0          
O        O      0.181450000000     0.913050000000     0.790766666667     0          
O        O      0.620900000000     0.000000000000     0.000000000000     0          
O        O      0.584500000000     0.084500000000     0.000000000000     0          
O        O      0.750000000000     0.437250000000     0.262166666667     0          
O        O      0.663050000000     0.431450000000     0.290766666667     0          
O        O      0.500000000000     0.120900000000     0.000000000000     0          
O        O      0.915500000000     0.084500000000     0.000000000000     0          
O        O      0.562750000000     0.250000000000     0.262166666667     0          
O        O      0.568550000000     0.163050000000     0.290766666667     0          
O        O      0.879100000000     0.000000000000     0.000000000000     0          
O        O      0.915500000000     0.415500000000     0.000000000000     0          
O        O      0.750000000000     0.062750000000     0.262166666667     0          
O        O      0.836950000000     0.068550000000     0.290766666667     0          
O        O      0.500000000000     0.379100000000     0.000000000000     0          
O        O      0.584500000000     0.415500000000     0.000000000000     0          
O        O      0.937250000000     0.250000000000     0.262166666667     0          
O        O      0.931450000000     0.336950000000     0.290766666667     0          
O        O      0.750000000000     0.062750000000     0.071166666667     0          
O        O      0.663050000000     0.068550000000     0.042566666667     0          
O        O      0.937250000000     0.250000000000     0.071166666667     0          
O        O      0.931450000000     0.163050000000     0.042566666667     0          
O        O      0.750000000000     0.437250000000     0.071166666667     0          
O        O      0.836950000000     0.431450000000     0.042566666667     0          
O        O      0.562750000000     0.250000000000     0.071166666667     0          
O        O      0.568550000000     0.336950000000     0.042566666667     0          
O        O      0.836950000000     0.068550000000     0.042566666667     0          
O        O      0.931450000000     0.336950000000     0.042566666667     0          
O        O      0.663050000000     0.431450000000     0.042566666667     0          
O        O      0.568550000000     0.163050000000     0.042566666667     0          
O        O      0.836950000000     0.431450000000     0.290766666667     0          
O        O      0.568550000000     0.336950000000     0.290766666667     0          
O        O      0.663050000000     0.068550000000     0.290766666667     0          
O        O      0.931450000000     0.163050000000     0.290766666667     0          
O        O      0.870900000000     0.250000000000     0.166666666667     0          
O        O      0.834500000000     0.334500000000     0.166666666667     0          
O        O      0.500000000000     0.187250000000     0.095500000000     0          
O        O      0.913050000000     0.181450000000     0.124100000000     0          
O        O      0.750000000000     0.370900000000     0.166666666667     0          
O        O      0.665500000000     0.334500000000     0.166666666667     0          
O        O      0.812750000000     0.000000000000     0.095500000000     0          
O        O      0.818550000000     0.413050000000     0.124100000000     0          
O        O      0.629100000000     0.250000000000     0.166666666667     0          
O        O      0.665500000000     0.165500000000     0.166666666667     0          
O        O      0.500000000000     0.312750000000     0.095500000000     0          
O        O      0.586950000000     0.318550000000     0.124100000000     0          
O        O      0.750000000000     0.129100000000     0.166666666667     0          
O        O      0.834500000000     0.165500000000     0.166666666667     0          
O        O      0.687250000000     0.000000000000     0.095500000000     0          
O        O      0.681450000000     0.086950000000     0.124100000000     0          
O        O      0.500000000000     0.312750000000     0.237833333333     0          
O        O      0.913050000000     0.318550000000     0.209233333333     0          
O        O      0.687250000000     0.000000000000     0.237833333333     0          
O        O      0.681450000000     0.413050000000     0.209233333333     0          
O        O      0.500000000000     0.187250000000     0.237833333333     0          
O        O      0.586950000000     0.181450000000     0.209233333333     0          
O        O      0.812750000000     0.000000000000     0.237833333333     0          
O        O      0.818550000000     0.086950000000     0.209233333333     0          
O        O      0.586950000000     0.318550000000     0.209233333333     0          
O        O      0.681450000000     0.086950000000     0.209233333333     0          
O        O      0.913050000000     0.181450000000     0.209233333333     0          
O        O      0.818550000000     0.413050000000     0.209233333333     0          
O        O      0.586950000000     0.181450000000     0.124100000000     0          
O        O      0.818550000000     0.086950000000     0.124100000000     0          
O        O      0.913050000000     0.318550000000     0.124100000000     0          
O        O      0.681450000000     0.413050000000     0.124100000000     0          
O        O      0.620900000000     0.000000000000     0.333333333333     0          
O        O      0.584500000000     0.084500000000     0.333333333333     0          
O        O      0.750000000000     0.437250000000     0.595500000000     0          
O        O      0.663050000000     0.431450000000     0.624100000000     0          
O        O      0.500000000000     0.120900000000     0.333333333333     0          
O        O      0.915500000000     0.084500000000     0.333333333333     0          
O        O      0.562750000000     0.250000000000     0.595500000000     0          
O        O      0.568550000000     0.163050000000     0.624100000000     0          
O        O      0.879100000000     0.000000000000     0.333333333333     0          
O        O      0.915500000000     0.415500000000     0.333333333333     0          
O        O      0.750000000000     0.062750000000     0.595500000000     0          
O        O      0.836950000000     0.068550000000     0.624100000000     0          
O        O      0.500000000000     0.379100000000     0.333333333333     0          
O        O      0.584500000000     0.415500000000     0.333333333333     0          
O        O      0.937250000000     0.250000000000     0.595500000000     0          
O        O      0.931450000000     0.336950000000     0.624100000000     0          
O        O      0.750000000000     0.062750000000     0.404500000000     0          
O        O      0.663050000000     0.068550000000     0.375900000000     0          
O        O      0.937250000000     0.250000000000     0.404500000000     0          
O        O      0.931450000000     0.163050000000     0.375900000000     0          
O        O      0.750000000000     0.437250000000     0.404500000000     0          
O        O      0.836950000000     0.431450000000     0.375900000000     0          
O        O      0.562750000000     0.250000000000     0.404500000000     0          
O        O      0.568550000000     0.336950000000     0.375900000000     0          
O        O      0.836950000000     0.068550000000     0.375900000000     0          
O        O      0.931450000000     0.336950000000     0.375900000000     0          
O        O      0.663050000000     0.431450000000     0.375900000000     0          
O        O      0.568550000000     0.163050000000     0.375900000000     0          
O        O      0.836950000000     0.431450000000     0.624100000000     0          
O        O      0.568550000000     0.336950000000     0.624100000000     0          
O        O      0.663050000000     0.068550000000     0.624100000000     0          
O        O      0.931450000000     0.163050000000     0.624100000000     0          
O        O      0.870900000000     0.250000000000     0.500000000000     0          
O        O      0.834500000000     0.334500000000     0.500000000000     0          
O        O      0.500000000000     0.187250000000     0.428833333333     0          
O        O      0.913050000000     0.181450000000     0.457433333333     0          
O        O      0.750000000000     0.370900000000     0.500000000000     0          
O        O      0.665500000000     0.334500000000     0.500000000000     0          
O        O      0.812750000000     0.000000000000     0.428833333333     0          
O        O      0.818550000000     0.413050000000     0.457433333333     0          
O        O      0.629100000000     0.250000000000     0.500000000000     0          
O        O      0.665500000000     0.165500000000     0.500000000000     0          
O        O      0.500000000000     0.312750000000     0.428833333333     0          
O        O      0.586950000000     0.318550000000     0.457433333333     0          
O        O      0.750000000000     0.129100000000     0.500000000000     0          
O        O      0.834500000000     0.165500000000     0.500000000000     0          
O        O      0.687250000000     0.000000000000     0.428833333333     0          
O        O      0.681450000000     0.086950000000     0.457433333333     0          
O        O      0.500000000000     0.312750000000     0.571166666667     0          
O        O      0.913050000000     0.318550000000     0.542566666667     0          
O        O      0.687250000000     0.000000000000     0.571166666667     0          
O        O      0.681450000000     0.413050000000     0.542566666667     0          
O        O      0.500000000000     0.187250000000     0.571166666667     0          
O        O      0.586950000000     0.181450000000     0.542566666667     0          
O        O      0.812750000000     0.000000000000     0.571166666667     0          
O        O      0.818550000000     0.086950000000     0.542566666667     0          
O        O      0.586950000000     0.318550000000     0.542566666667     0          
O        O      0.681450000000     0.086950000000     0.542566666667     0          
O        O      0.913050000000     0.181450000000     0.542566666667     0          
O        O      0.818550000000     0.413050000000     0.542566666667     0          
O        O      0.586950000000     0.181450000000     0.457433333333     0          
O        O      0.818550000000     0.086950000000     0.457433333333     0          
O        O      0.913050000000     0.318550000000     0.457433333333     0          
O        O      0.681450000000     0.413050000000     0.457433333333     0          
O        O      0.620900000000     0.000000000000     0.666666666667     0          
O        O      0.584500000000     0.084500000000     0.666666666667     0          
O        O      0.750000000000     0.437250000000     0.928833333333     0          
O        O      0.663050000000     0.431450000000     0.957433333333     0          
O        O      0.500000000000     0.120900000000     0.666666666667     0          
O        O      0.915500000000     0.084500000000     0.666666666667     0          
O        O      0.562750000000     0.250000000000     0.928833333333     0          
O        O      0.568550000000     0.163050000000     0.957433333333     0          
O        O      0.879100000000     0.000000000000     0.666666666667     0          
O        O      0.915500000000     0.415500000000     0.666666666667     0          
O        O      0.750000000000     0.062750000000     0.928833333333     0          
O        O      0.836950000000     0.068550000000     0.957433333333     0          
O        O      0.500000000000     0.379100000000     0.666666666667     0          
O        O      0.584500000000     0.415500000000     0.666666666667     0          
O        O      0.937250000000     0.250000000000     0.928833333333     0          
O        O      0.931450000000     0.336950000000     0.957433333333     0          
O        O      0.750000000000     0.062750000000     0.737833333333     0          
O        O      0.663050000000     0.068550000000     0.709233333333     0          
O        O      0.937250000000     0.250000000000     0.737833333333     0          
O        O      0.931450000000     0.163050000000     0.709233333333     0          
O        O      0.750000000000     0.437250000000     0.737833333333     0          
O        O      0.836950000000     0.431450000000     0.709233333333     0          
O        O      0.562750000000     0.250000000000     0.737833333333     0          
O        O      0.568550000000     0.336950000000     0.709233333333     0          
O        O      0.836950000000     0.068550000000     0.709233333333     0          
O        O      0.931450000000     0.336950000000     0.709233333333     0          
O        O      0.663050000000     0.431450000000     0.709233333333     0          
O        O      0.568550000000     0.163050000000     0.709233333333     0          
O        O      0.836950000000     0.431450000000     0.957433333333     0          
O        O      0.568550000000     0.336950000000     0.957433333333     0          
O        O      0.663050000000     0.068550000000     0.957433333333     0          
O        O      0.931450000000     0.163050000000     0.957433333333     0          
O        O      0.870900000000     0.250000000000     0.833333333333     0          
O        O      0.834500000000     0.334500000000     0.833333333333     0          
O        O      0.500000000000     0.187250000000     0.762166666667     0          
O        O      0.913050000000     0.181450000000     0.790766666667     0          
O        O      0.750000000000     0.370900000000     0.833333333333     0          
O        O      0.665500000000     0.334500000000     0.833333333333     0          
O        O      0.812750000000     0.000000000000     0.762166666667     0          
O        O      0.818550000000     0.413050000000     0.790766666667     0          
O        O      0.629100000000     0.250000000000     0.833333333333     0          
O        O      0.665500000000     0.165500000000     0.833333333333     0          
O        O      0.500000000000     0.312750000000     0.762166666667     0          
O        O      0.586950000000     0.318550000000     0.790766666667     0          
O        O      0.750000000000     0.129100000000     0.833333333333     0          
O        O      0.834500000000     0.165500000000     0.833333333333     0          
O        O      0.687250000000     0.000000000000     0.762166666667     0          
O        O      0.681450000000     0.086950000000     0.790766666667     0          
O        O      0.500000000000     0.312750000000     0.904500000000     0          
O        O      0.913050000000     0.318550000000     0.875900000000     0          
O        O      0.687250000000     0.000000000000     0.904500000000     0          
O        O      0.681450000000     0.413050000000     0.875900000000     0          
O        O      0.500000000000     0.187250000000     0.904500000000     0          
O        O      0.586950000000     0.181450000000     0.875900000000     0          
O        O      0.812750000000     0.000000000000     0.904500000000     0          
O        O      0.818550000000     0.086950000000     0.875900000000     0          
O        O      0.586950000000     0.318550000000     0.875900000000     0          
O        O      0.681450000000     0.086950000000     0.875900000000     0          
O        O      0.913050000000     0.181450000000     0.875900000000     0          
O        O      0.818550000000     0.413050000000     0.875900000000     0          
O        O      0.586950000000     0.181450000000     0.790766666667     0          
O        O      0.818550000000     0.086950000000     0.790766666667     0          
O        O      0.913050000000     0.318550000000     0.790766666667     0          
O        O      0.681450000000     0.413050000000     0.790766666667     0          
O        O      0.620900000000     0.500000000000     0.000000000000     0          
O        O      0.584500000000     0.584500000000     0.000000000000     0          
O        O      0.750000000000     0.937250000000     0.262166666667     0          
O        O      0.663050000000     0.931450000000     0.290766666667     0          
O        O      0.500000000000     0.620900000000     0.000000000000     0          
O        O      0.915500000000     0.584500000000     0.000000000000     0          
O        O      0.562750000000     0.750000000000     0.262166666667     0          
O        O      0.568550000000     0.663050000000     0.290766666667     0          
O        O      0.879100000000     0.500000000000     0.000000000000     0          
O        O      0.915500000000     0.915500000000     0.000000000000     0          
O        O      0.750000000000     0.562750000000     0.262166666667     0          
O        O      0.836950000000     0.568550000000     0.290766666667     0          
O        O      0.500000000000     0.879100000000     0.000000000000     0          
O        O      0.584500000000     0.915500000000     0.000000000000     0          
O        O      0.937250000000     0.750000000000     0.262166666667     0          
O        O      0.931450000000     0.836950000000     0.290766666667     0          
O        O      0.750000000000     0.562750000000     0.071166666667     0          
O        O      0.663050000000     0.568550000000     0.042566666667     0          
O        O      0.937250000000     0.750000000000     0.071166666667     0          
O        O      0.931450000000     0.663050000000     0.042566666667     0          
O        O      0.750000000000     0.937250000000     0.071166666667     0          
O        O      0.836950000000     0.931450000000     0.042566666667     0          
O        O      0.562750000000     0.750000000000     0.071166666667     0          
O        O      0.568550000000     0.836950000000     0.042566666667     0          
O        O      0.836950000000     0.568550000000     0.042566666667     0          
O        O      0.931450000000     0.836950000000     0.042566666667     0          
O        O      0.663050000000     0.931450000000     0.042566666667     0          
O        O      0.568550000000     0.663050000000     0.042566666667     0          
O        O      0.836950000000     0.931450000000     0.290766666667     0          
O        O      0.568550000000     0.836950000000     0.290766666667     0          
O        O      0.663050000000     0.568550000000     0.290766666667     0          
O        O      0.931450000000     0.663050000000     0.290766666667     0          
O        O      0.870900000000     0.750000000000     0.166666666667     0          
O        O      0.834500000000     0.834500000000     0.166666666667     0          
O        O      0.500000000000     0.687250000000     0.095500000000     0          
O        O      0.913050000000     0.681450000000     0.124100000000     0          
O        O      0.750000000000     0.870900000000     0.166666666667     0          
O        O      0.665500000000     0.834500000000     0.166666666667     0          
O        O      0.812750000000     0.500000000000     0.095500000000     0          
O        O      0.818550000000     0.913050000000     0.124100000000     0          
O        O      0.629100000000     0.750000000000     0.166666666667     0          
O        O      0.665500000000     0.665500000000     0.166666666667     0          
O        O      0.500000000000     0.812750000000     0.095500000000     0          
O        O      0.586950000000     0.818550000000     0.124100000000     0          
O        O      0.750000000000     0.629100000000     0.166666666667     0          
O        O      0.834500000000     0.665500000000     0.166666666667     0          
O        O      0.687250000000     0.500000000000     0.095500000000     0          
O        O      0.681450000000     0.586950000000     0.124100000000     0          
O        O      0.500000000000     0.812750000000     0.237833333333     0          
O        O      0.913050000000     0.818550000000     0.209233333333     0          
O        O      0.687250000000     0.500000000000     0.237833333333     0          
O        O      0.681450000000     0.913050000000     0.209233333333     0          
O        O      0.500000000000     0.687250000000     0.237833333333     0          
O        O      0.586950000000     0.681450000000     0.209233333333     0          
O        O      0.812750000000     0.500000000000     0.237833333333     0          
O        O      0.818550000000     0.586950000000     0.209233333333     0          
O        O      0.586950000000     0.818550000000     0.209233333333     0          
O        O      0.681450000000     0.586950000000     0.209233333333     0          
O        O      0.913050000000     0.681450000000     0.209233333333     0          
O        O      0.818550000000     0.913050000000     0.209233333333     0          
O        O      0.586950000000     0.681450000000     0.124100000000     0          
O        O      0.818550000000     0.586950000000     0.124100000000     0          
O        O      0.913050000000     0.818550000000     0.124100000000     0          
O        O      0.681450000000     0.913050000000     0.124100000000     0          
O        O      0.620900000000     0.500000000000     0.333333333333     0          
O        O      0.584500000000     0.584500000000     0.333333333333     0          
O        O      0.750000000000     0.937250000000     0.595500000000     0          
O        O      0.663050000000     0.931450000000     0.624100000000     0          
O        O      0.500000000000     0.620900000000     0.333333333333     0          
O        O      0.915500000000     0.584500000000     0.333333333333     0          
O        O      0.562750000000     0.750000000000     0.595500000000     0          
O        O      0.568550000000     0.663050000000     0.624100000000     0          
O        O      0.879100000000     0.500000000000     0.333333333333     0          
O        O      0.915500000000     0.915500000000     0.333333333333     0          
O        O      0.750000000000     0.562750000000     0.595500000000     0          
O        O      0.836950000000     0.568550000000     0.624100000000     0          
O        O      0.500000000000     0.879100000000     0.333333333333     0          
O        O      0.584500000000     0.915500000000     0.333333333333     0          
O        O      0.937250000000     0.750000000000     0.595500000000     0          
O        O      0.931450000000     0.836950000000     0.624100000000     0          
O        O      0.750000000000     0.562750000000     0.404500000000     0          
O        O      0.663050000000     0.568550000000     0.375900000000     0          
O        O      0.937250000000     0.750000000000     0.404500000000     0          
O        O      0.931450000000     0.663050000000     0.375900000000     0          
O        O      0.750000000000     0.937250000000     0.404500000000     0          
O        O      0.836950000000     0.931450000000     0.375900000000     0          
O        O      0.562750000000     0.750000000000     0.404500000000     0          
O        O      0.568550000000     0.836950000000     0.375900000000     0          
O        O      0.836950000000     0.568550000000     0.375900000000     0          
O        O      0.931450000000     0.836950000000     0.375900000000     0          
O        O      0.663050000000     0.931450000000     0.375900000000     0          
O        O      0.568550000000     0.663050000000     0.375900000000     0          
O        O      0.836950000000     0.931450000000     0.624100000000     0          
O        O      0.568550000000     0.836950000000     0.624100000000     0          
O        O      0.663050000000     0.568550000000     0.624100000000     0          
O        O      0.931450000000     0.663050000000     0.624100000000     0          
O        O      0.870900000000     0.750000000000     0.500000000000     0          
O        O      0.834500000000     0.834500000000     0.500000000000     0          
O        O      0.500000000000     0.687250000000     0.428833333333     0          
O        O      0.913050000000     0.681450000000     0.457433333333     0          
O        O      0.750000000000     0.870900000000     0.500000000000     0          
O        O      0.665500000000     0.834500000000     0.500000000000     0          
O        O      0.812750000000     0.500000000000     0.428833333333     0          
O        O      0.818550000000     0.913050000000     0.457433333333     0          
O        O      0.629100000000     0.750000000000     0.500000000000     0          
O        O      0.665500000000     0.665500000000     0.500000000000     0          
O        O      0.500000000000     0.812750000000     0.428833333333     0          
O        O      0.586950000000     0.818550000000     0.457433333333     0          
O        O      0.750000000000     0.629100000000     0.500000000000     0          
O        O      0.834500000000     0.665500000000     0.500000000000     0          
O        O      0.687250000000     0.500000000000     0.428833333333     0          
O        O      0.681450000000     0.586950000000     0.457433333333     0          
O        O      0.500000000000     0.812750000000     0.571166666667     0          
O        O      0.913050000000     0.818550000000     0.542566666667     0          
O        O      0.687250000000     0.500000000000     0.571166666667     0          
O        O      0.681450000000     0.913050000000     0.542566666667     0          
O        O      0.500000000000     0.687250000000     0.571166666667     0          
O        O      0.586950000000     0.681450000000     0.542566666667     0          
O        O      0.812750000000     0.500000000000     0.571166666667     0          
O        O      0.818550000000     0.586950000000     0.542566666667     0          
O        O      0.586950000000     0.818550000000     0.542566666667     0          
O        O      0.681450000000     0.586950000000     0.542566666667     0          
O        O      0.913050000000     0.681450000000     0.542566666667     0          
O        O      0.818550000000     0.913050000000     0.542566666667     0          
O        O      0.586950000000     0.681450000000     0.457433333333     0          
O        O      0.818550000000     0.586950000000     0.457433333333     0          
O        O      0.913050000000     0.818550000000     0.457433333333     0          
O        O      0.681450000000     0.913050000000     0.457433333333     0          
O        O      0.620900000000     0.500000000000     0.666666666667     0          
O        O      0.584500000000     0.584500000000     0.666666666667     0          
O        O      0.750000000000     0.937250000000     0.928833333333     0          
O        O      0.663050000000     0.931450000000     0.957433333333     0          
O        O      0.500000000000     0.620900000000     0.666666666667     0          
O        O      0.915500000000     0.584500000000     0.666666666667     0          
O        O      0.562750000000     0.750000000000     0.928833333333     0          
O        O      0.568550000000     0.663050000000     0.957433333333     0          
O        O      0.879100000000     0.500000000000     0.666666666667     0          
O        O      0.915500000000     0.915500000000     0.666666666667     0          
O        O      0.750000000000     0.562750000000     0.928833333333     0          
O        O      0.836950000000     0.568550000000     0.957433333333     0          
O        O      0.500000000000     0.879100000000     0.666666666667     0          
O        O      0.584500000000     0.915500000000     0.666666666667     0          
O        O      0.937250000000     0.750000000000     0.928833333333     0          
O        O      0.931450000000     0.836950000000     0.957433333333     0          
O        O      0.750000000000     0.562750000000     0.737833333333     0          
O        O      0.663050000000     0.568550000000     0.709233333333     0          
O        O      0.937250000000     0.750000000000     0.737833333333     0          
O        O      0.931450000000     0.663050000000     0.709233333333     0          
O        O      0.750000000000     0.937250000000     0.737833333333     0          
O        O      0.836950000000     0.931450000000     0.709233333333     0          
O        O      0.562750000000     0.750000000000     0.737833333333     0          
O        O      0.568550000000     0.836950000000     0.709233333333     0          
O        O      0.836950000000     0.568550000000     0.709233333333     0          
O        O      0.931450000000     0.836950000000     0.709233333333     0          
O        O      0.663050000000     0.931450000000     0.709233333333     0          
O        O      0.568550000000     0.663050000000     0.709233333333     0          
O        O      0.836950000000     0.931450000000     0.957433333333     0          
O        O      0.568550000000     0.836950000000     0.957433333333     0          
O        O      0.663050000000     0.568550000000     0.957433333333     0          
O        O      0.931450000000     0.663050000000     0.957433333333     0          
O        O      0.870900000000     0.750000000000     0.833333333333     0          
O        O      0.834500000000     0.834500000000     0.833333333333     0          
O        O      0.500000000000     0.687250000000     0.762166666667     0          
O        O      0.913050000000     0.681450000000     0.790766666667     0          
O        O      0.750000000000     0.870900000000     0.833333333333     0          
O        O      0.665500000000     0.834500000000     0.833333333333     0          
O        O      0.812750000000     0.500000000000     0.762166666667     0          
O        O      0.818550000000     0.913050000000     0.790766666667     0          
O        O      0.629100000000     0.750000000000     0.833333333333     0          
O        O      0.665500000000     0.665500000000     0.833333333333     0          
O        O      0.500000000000     0.812750000000     0.762166666667     0          
O        O      0.586950000000     0.818550000000     0.790766666667     0          
O        O      0.750000000000     0.629100000000     0.833333333333     0          
O        O      0.834500000000     0.665500000000     0.833333333333     0          
O        O      0.687250000000     0.500000000000     0.762166666667     0          
O        O      0.681450000000     0.586950000000     0.790766666667     0          
O        O      0.500000000000     0.812750000000     0.904500000000     0          
O        O      0.913050000000     0.818550000000     0.875900000000     0          
O        O      0.687250000000     0.500000000000     0.904500000000     0          
O        O      0.681450000000     0.913050000000     0.875900000000     0          
O        O      0.500000000000     0.687250000000     0.904500000000     0          
O        O      0.586950000000     0.681450000000     0.875900000000     0          
O        O      0.812750000000     0.500000000000     0.904500000000     0          
O        O      0.818550000000     0.586950000000     0.875900000000     0          
O        O      0.586950000000     0.818550000000     0.875900000000     0          
O        O      0.681450000000     0.586950000000     0.875900000000     0          
O        O      0.913050000000     0.681450000000     0.875900000000     0          
O        O      0.818550000000     0.913050000000     0.875900000000     0          
O        O      0.586950000000     0.681450000000     0.790766666667     0          
O        O      0.818550000000     0.586950000000     0.790766666667     0          
O        O      0.913050000000     0.818550000000     0.790766666667     0          
O        O      0.681450000000     0.913050000000     0.790766666667     0          


