data_zeolite

_audit_creation_method RASPA-1.0
_audit_creation_date 2021-6-7
_audit_author_name ''

_cell_length_a    5.255
_cell_length_b    34.319
_cell_length_c    21.518
_cell_angle_alpha 90
_cell_angle_beta  90
_cell_angle_gamma 90
_cell_volume      38806.9

_symmetry_cell_setting          orthorhombic
_symmetry_space_group_name_Hall 'P 1'
_symmetry_space_group_name_H-M  'P 1'
_symmetry_Int_Tables_number     1

_symmetry_equiv_pos_as_xyz 'x,y,z'

loop_
_atom_site_label
_atom_site_type_symbol
_atom_site_fract_x
_atom_site_fract_y
_atom_site_fract_z
_atom_site_charge
T        Si     0.000000000000     0.063500000000     0.009450000000     0          
T        Si     0.100000000000     0.199100000000     0.003500000000     0          
T        Si     0.000000000000     0.380200000000     0.069850000000     0          
T        Si     0.100000000000     0.277100000000     0.033900000000     0          
T        Si     0.000000000000     0.014800000000     0.300500000000     0          
T        Si     0.000000000000     0.388900000000     0.495800000000     0          
T        Si     0.100000000000     0.331300000000     0.088350000000     0          
T        Si     0.000000000000     0.467500000000     0.089400000000     0          
T        Si     0.000000000000     0.936500000000     0.259450000000     0          
T        Si     0.100000000000     0.800900000000     0.253500000000     0          
T        Si     0.000000000000     0.619800000000     0.319850000000     0          
T        Si     0.100000000000     0.722900000000     0.283900000000     0          
T        Si     0.000000000000     0.985200000000     0.050500000000     0          
T        Si     0.000000000000     0.611100000000     0.245800000000     0          
T        Si     0.100000000000     0.668700000000     0.338350000000     0          
T        Si     0.000000000000     0.532500000000     0.339400000000     0          
T        Si     0.000000000000     0.936500000000     0.490550000000     0          
T        Si     0.100000000000     0.800900000000     0.496500000000     0          
T        Si     0.000000000000     0.619800000000     0.430150000000     0          
T        Si     0.100000000000     0.722900000000     0.466100000000     0          
T        Si     0.000000000000     0.985200000000     0.199500000000     0          
T        Si     0.000000000000     0.611100000000     0.004200000000     0          
T        Si     0.100000000000     0.668700000000     0.411650000000     0          
T        Si     0.000000000000     0.532500000000     0.410600000000     0          
T        Si     0.000000000000     0.063500000000     0.240550000000     0          
T        Si     0.100000000000     0.199100000000     0.246500000000     0          
T        Si     0.000000000000     0.380200000000     0.180150000000     0          
T        Si     0.100000000000     0.277100000000     0.216100000000     0          
T        Si     0.000000000000     0.014800000000     0.449500000000     0          
T        Si     0.000000000000     0.388900000000     0.254200000000     0          
T        Si     0.100000000000     0.331300000000     0.161650000000     0          
T        Si     0.000000000000     0.467500000000     0.160600000000     0          
T        Si     0.100000000000     0.563500000000     0.009450000000     0          
T        Si     0.000000000000     0.699100000000     0.003500000000     0          
T        Si     0.100000000000     0.880200000000     0.069850000000     0          
T        Si     0.000000000000     0.777100000000     0.033900000000     0          
T        Si     0.100000000000     0.514800000000     0.300500000000     0          
T        Si     0.100000000000     0.888900000000     0.495800000000     0          
T        Si     0.000000000000     0.831300000000     0.088350000000     0          
T        Si     0.100000000000     0.967500000000     0.089400000000     0          
T        Si     0.100000000000     0.436500000000     0.259450000000     0          
T        Si     0.000000000000     0.300900000000     0.253500000000     0          
T        Si     0.100000000000     0.119800000000     0.319850000000     0          
T        Si     0.000000000000     0.222900000000     0.283900000000     0          
T        Si     0.100000000000     0.485200000000     0.050500000000     0          
T        Si     0.100000000000     0.111100000000     0.245800000000     0          
T        Si     0.000000000000     0.168700000000     0.338350000000     0          
T        Si     0.100000000000     0.032500000000     0.339400000000     0          
T        Si     0.100000000000     0.436500000000     0.490550000000     0          
T        Si     0.000000000000     0.300900000000     0.496500000000     0          
T        Si     0.100000000000     0.119800000000     0.430150000000     0          
T        Si     0.000000000000     0.222900000000     0.466100000000     0          
T        Si     0.100000000000     0.485200000000     0.199500000000     0          
T        Si     0.100000000000     0.111100000000     0.004200000000     0          
T        Si     0.000000000000     0.168700000000     0.411650000000     0          
T        Si     0.100000000000     0.032500000000     0.410600000000     0          
T        Si     0.100000000000     0.563500000000     0.240550000000     0          
T        Si     0.000000000000     0.699100000000     0.246500000000     0          
T        Si     0.100000000000     0.880200000000     0.180150000000     0          
T        Si     0.000000000000     0.777100000000     0.216100000000     0          
T        Si     0.100000000000     0.514800000000     0.449500000000     0          
T        Si     0.100000000000     0.888900000000     0.254200000000     0          
T        Si     0.000000000000     0.831300000000     0.161650000000     0          
T        Si     0.100000000000     0.967500000000     0.160600000000     0          
T        Si     0.000000000000     0.063500000000     0.509450000000     0          
T        Si     0.100000000000     0.199100000000     0.503500000000     0          
T        Si     0.000000000000     0.380200000000     0.569850000000     0          
T        Si     0.100000000000     0.277100000000     0.533900000000     0          
T        Si     0.000000000000     0.014800000000     0.800500000000     0          
T        Si     0.000000000000     0.388900000000     0.995800000000     0          
T        Si     0.100000000000     0.331300000000     0.588350000000     0          
T        Si     0.000000000000     0.467500000000     0.589400000000     0          
T        Si     0.000000000000     0.936500000000     0.759450000000     0          
T        Si     0.100000000000     0.800900000000     0.753500000000     0          
T        Si     0.000000000000     0.619800000000     0.819850000000     0          
T        Si     0.100000000000     0.722900000000     0.783900000000     0          
T        Si     0.000000000000     0.985200000000     0.550500000000     0          
T        Si     0.000000000000     0.611100000000     0.745800000000     0          
T        Si     0.100000000000     0.668700000000     0.838350000000     0          
T        Si     0.000000000000     0.532500000000     0.839400000000     0          
T        Si     0.000000000000     0.936500000000     0.990550000000     0          
T        Si     0.100000000000     0.800900000000     0.996500000000     0          
T        Si     0.000000000000     0.619800000000     0.930150000000     0          
T        Si     0.100000000000     0.722900000000     0.966100000000     0          
T        Si     0.000000000000     0.985200000000     0.699500000000     0          
T        Si     0.000000000000     0.611100000000     0.504200000000     0          
T        Si     0.100000000000     0.668700000000     0.911650000000     0          
T        Si     0.000000000000     0.532500000000     0.910600000000     0          
T        Si     0.000000000000     0.063500000000     0.740550000000     0          
T        Si     0.100000000000     0.199100000000     0.746500000000     0          
T        Si     0.000000000000     0.380200000000     0.680150000000     0          
T        Si     0.100000000000     0.277100000000     0.716100000000     0          
T        Si     0.000000000000     0.014800000000     0.949500000000     0          
T        Si     0.000000000000     0.388900000000     0.754200000000     0          
T        Si     0.100000000000     0.331300000000     0.661650000000     0          
T        Si     0.000000000000     0.467500000000     0.660600000000     0          
T        Si     0.100000000000     0.563500000000     0.509450000000     0          
T        Si     0.000000000000     0.699100000000     0.503500000000     0          
T        Si     0.100000000000     0.880200000000     0.569850000000     0          
T        Si     0.000000000000     0.777100000000     0.533900000000     0          
T        Si     0.100000000000     0.514800000000     0.800500000000     0          
T        Si     0.100000000000     0.888900000000     0.995800000000     0          
T        Si     0.000000000000     0.831300000000     0.588350000000     0          
T        Si     0.100000000000     0.967500000000     0.589400000000     0          
T        Si     0.100000000000     0.436500000000     0.759450000000     0          
T        Si     0.000000000000     0.300900000000     0.753500000000     0          
T        Si     0.100000000000     0.119800000000     0.819850000000     0          
T        Si     0.000000000000     0.222900000000     0.783900000000     0          
T        Si     0.100000000000     0.485200000000     0.550500000000     0          
T        Si     0.100000000000     0.111100000000     0.745800000000     0          
T        Si     0.000000000000     0.168700000000     0.838350000000     0          
T        Si     0.100000000000     0.032500000000     0.839400000000     0          
T        Si     0.100000000000     0.436500000000     0.990550000000     0          
T        Si     0.000000000000     0.300900000000     0.996500000000     0          
T        Si     0.100000000000     0.119800000000     0.930150000000     0          
T        Si     0.000000000000     0.222900000000     0.966100000000     0          
T        Si     0.100000000000     0.485200000000     0.699500000000     0          
T        Si     0.100000000000     0.111100000000     0.504200000000     0          
T        Si     0.000000000000     0.168700000000     0.911650000000     0          
T        Si     0.100000000000     0.032500000000     0.910600000000     0          
T        Si     0.100000000000     0.563500000000     0.740550000000     0          
T        Si     0.000000000000     0.699100000000     0.746500000000     0          
T        Si     0.100000000000     0.880200000000     0.680150000000     0          
T        Si     0.000000000000     0.777100000000     0.716100000000     0          
T        Si     0.100000000000     0.514800000000     0.949500000000     0          
T        Si     0.100000000000     0.888900000000     0.754200000000     0          
T        Si     0.000000000000     0.831300000000     0.661650000000     0          
T        Si     0.100000000000     0.967500000000     0.660600000000     0          
T        Si     0.200000000000     0.063500000000     0.009450000000     0          
T        Si     0.300000000000     0.199100000000     0.003500000000     0          
T        Si     0.200000000000     0.380200000000     0.069850000000     0          
T        Si     0.300000000000     0.277100000000     0.033900000000     0          
T        Si     0.200000000000     0.014800000000     0.300500000000     0          
T        Si     0.200000000000     0.388900000000     0.495800000000     0          
T        Si     0.300000000000     0.331300000000     0.088350000000     0          
T        Si     0.200000000000     0.467500000000     0.089400000000     0          
T        Si     0.200000000000     0.936500000000     0.259450000000     0          
T        Si     0.300000000000     0.800900000000     0.253500000000     0          
T        Si     0.200000000000     0.619800000000     0.319850000000     0          
T        Si     0.300000000000     0.722900000000     0.283900000000     0          
T        Si     0.200000000000     0.985200000000     0.050500000000     0          
T        Si     0.200000000000     0.611100000000     0.245800000000     0          
T        Si     0.300000000000     0.668700000000     0.338350000000     0          
T        Si     0.200000000000     0.532500000000     0.339400000000     0          
T        Si     0.200000000000     0.936500000000     0.490550000000     0          
T        Si     0.300000000000     0.800900000000     0.496500000000     0          
T        Si     0.200000000000     0.619800000000     0.430150000000     0          
T        Si     0.300000000000     0.722900000000     0.466100000000     0          
T        Si     0.200000000000     0.985200000000     0.199500000000     0          
T        Si     0.200000000000     0.611100000000     0.004200000000     0          
T        Si     0.300000000000     0.668700000000     0.411650000000     0          
T        Si     0.200000000000     0.532500000000     0.410600000000     0          
T        Si     0.200000000000     0.063500000000     0.240550000000     0          
T        Si     0.300000000000     0.199100000000     0.246500000000     0          
T        Si     0.200000000000     0.380200000000     0.180150000000     0          
T        Si     0.300000000000     0.277100000000     0.216100000000     0          
T        Si     0.200000000000     0.014800000000     0.449500000000     0          
T        Si     0.200000000000     0.388900000000     0.254200000000     0          
T        Si     0.300000000000     0.331300000000     0.161650000000     0          
T        Si     0.200000000000     0.467500000000     0.160600000000     0          
T        Si     0.300000000000     0.563500000000     0.009450000000     0          
T        Si     0.200000000000     0.699100000000     0.003500000000     0          
T        Si     0.300000000000     0.880200000000     0.069850000000     0          
T        Si     0.200000000000     0.777100000000     0.033900000000     0          
T        Si     0.300000000000     0.514800000000     0.300500000000     0          
T        Si     0.300000000000     0.888900000000     0.495800000000     0          
T        Si     0.200000000000     0.831300000000     0.088350000000     0          
T        Si     0.300000000000     0.967500000000     0.089400000000     0          
T        Si     0.300000000000     0.436500000000     0.259450000000     0          
T        Si     0.200000000000     0.300900000000     0.253500000000     0          
T        Si     0.300000000000     0.119800000000     0.319850000000     0          
T        Si     0.200000000000     0.222900000000     0.283900000000     0          
T        Si     0.300000000000     0.485200000000     0.050500000000     0          
T        Si     0.300000000000     0.111100000000     0.245800000000     0          
T        Si     0.200000000000     0.168700000000     0.338350000000     0          
T        Si     0.300000000000     0.032500000000     0.339400000000     0          
T        Si     0.300000000000     0.436500000000     0.490550000000     0          
T        Si     0.200000000000     0.300900000000     0.496500000000     0          
T        Si     0.300000000000     0.119800000000     0.430150000000     0          
T        Si     0.200000000000     0.222900000000     0.466100000000     0          
T        Si     0.300000000000     0.485200000000     0.199500000000     0          
T        Si     0.300000000000     0.111100000000     0.004200000000     0          
T        Si     0.200000000000     0.168700000000     0.411650000000     0          
T        Si     0.300000000000     0.032500000000     0.410600000000     0          
T        Si     0.300000000000     0.563500000000     0.240550000000     0          
T        Si     0.200000000000     0.699100000000     0.246500000000     0          
T        Si     0.300000000000     0.880200000000     0.180150000000     0          
T        Si     0.200000000000     0.777100000000     0.216100000000     0          
T        Si     0.300000000000     0.514800000000     0.449500000000     0          
T        Si     0.300000000000     0.888900000000     0.254200000000     0          
T        Si     0.200000000000     0.831300000000     0.161650000000     0          
T        Si     0.300000000000     0.967500000000     0.160600000000     0          
T        Si     0.200000000000     0.063500000000     0.509450000000     0          
T        Si     0.300000000000     0.199100000000     0.503500000000     0          
T        Si     0.200000000000     0.380200000000     0.569850000000     0          
T        Si     0.300000000000     0.277100000000     0.533900000000     0          
T        Si     0.200000000000     0.014800000000     0.800500000000     0          
T        Si     0.200000000000     0.388900000000     0.995800000000     0          
T        Si     0.300000000000     0.331300000000     0.588350000000     0          
T        Si     0.200000000000     0.467500000000     0.589400000000     0          
T        Si     0.200000000000     0.936500000000     0.759450000000     0          
T        Si     0.300000000000     0.800900000000     0.753500000000     0          
T        Si     0.200000000000     0.619800000000     0.819850000000     0          
T        Si     0.300000000000     0.722900000000     0.783900000000     0          
T        Si     0.200000000000     0.985200000000     0.550500000000     0          
T        Si     0.200000000000     0.611100000000     0.745800000000     0          
T        Si     0.300000000000     0.668700000000     0.838350000000     0          
T        Si     0.200000000000     0.532500000000     0.839400000000     0          
T        Si     0.200000000000     0.936500000000     0.990550000000     0          
T        Si     0.300000000000     0.800900000000     0.996500000000     0          
T        Si     0.200000000000     0.619800000000     0.930150000000     0          
T        Si     0.300000000000     0.722900000000     0.966100000000     0          
T        Si     0.200000000000     0.985200000000     0.699500000000     0          
T        Si     0.200000000000     0.611100000000     0.504200000000     0          
T        Si     0.300000000000     0.668700000000     0.911650000000     0          
T        Si     0.200000000000     0.532500000000     0.910600000000     0          
T        Si     0.200000000000     0.063500000000     0.740550000000     0          
T        Si     0.300000000000     0.199100000000     0.746500000000     0          
T        Si     0.200000000000     0.380200000000     0.680150000000     0          
T        Si     0.300000000000     0.277100000000     0.716100000000     0          
T        Si     0.200000000000     0.014800000000     0.949500000000     0          
T        Si     0.200000000000     0.388900000000     0.754200000000     0          
T        Si     0.300000000000     0.331300000000     0.661650000000     0          
T        Si     0.200000000000     0.467500000000     0.660600000000     0          
T        Si     0.300000000000     0.563500000000     0.509450000000     0          
T        Si     0.200000000000     0.699100000000     0.503500000000     0          
T        Si     0.300000000000     0.880200000000     0.569850000000     0          
T        Si     0.200000000000     0.777100000000     0.533900000000     0          
T        Si     0.300000000000     0.514800000000     0.800500000000     0          
T        Si     0.300000000000     0.888900000000     0.995800000000     0          
T        Si     0.200000000000     0.831300000000     0.588350000000     0          
T        Si     0.300000000000     0.967500000000     0.589400000000     0          
T        Si     0.300000000000     0.436500000000     0.759450000000     0          
T        Si     0.200000000000     0.300900000000     0.753500000000     0          
T        Si     0.300000000000     0.119800000000     0.819850000000     0          
T        Si     0.200000000000     0.222900000000     0.783900000000     0          
T        Si     0.300000000000     0.485200000000     0.550500000000     0          
T        Si     0.300000000000     0.111100000000     0.745800000000     0          
T        Si     0.200000000000     0.168700000000     0.838350000000     0          
T        Si     0.300000000000     0.032500000000     0.839400000000     0          
T        Si     0.300000000000     0.436500000000     0.990550000000     0          
T        Si     0.200000000000     0.300900000000     0.996500000000     0          
T        Si     0.300000000000     0.119800000000     0.930150000000     0          
T        Si     0.200000000000     0.222900000000     0.966100000000     0          
T        Si     0.300000000000     0.485200000000     0.699500000000     0          
T        Si     0.300000000000     0.111100000000     0.504200000000     0          
T        Si     0.200000000000     0.168700000000     0.911650000000     0          
T        Si     0.300000000000     0.032500000000     0.910600000000     0          
T        Si     0.300000000000     0.563500000000     0.740550000000     0          
T        Si     0.200000000000     0.699100000000     0.746500000000     0          
T        Si     0.300000000000     0.880200000000     0.680150000000     0          
T        Si     0.200000000000     0.777100000000     0.716100000000     0          
T        Si     0.300000000000     0.514800000000     0.949500000000     0          
T        Si     0.300000000000     0.888900000000     0.754200000000     0          
T        Si     0.200000000000     0.831300000000     0.661650000000     0          
T        Si     0.300000000000     0.967500000000     0.660600000000     0          
T        Si     0.400000000000     0.063500000000     0.009450000000     0          
T        Si     0.500000000000     0.199100000000     0.003500000000     0          
T        Si     0.400000000000     0.380200000000     0.069850000000     0          
T        Si     0.500000000000     0.277100000000     0.033900000000     0          
T        Si     0.400000000000     0.014800000000     0.300500000000     0          
T        Si     0.400000000000     0.388900000000     0.495800000000     0          
T        Si     0.500000000000     0.331300000000     0.088350000000     0          
T        Si     0.400000000000     0.467500000000     0.089400000000     0          
T        Si     0.400000000000     0.936500000000     0.259450000000     0          
T        Si     0.500000000000     0.800900000000     0.253500000000     0          
T        Si     0.400000000000     0.619800000000     0.319850000000     0          
T        Si     0.500000000000     0.722900000000     0.283900000000     0          
T        Si     0.400000000000     0.985200000000     0.050500000000     0          
T        Si     0.400000000000     0.611100000000     0.245800000000     0          
T        Si     0.500000000000     0.668700000000     0.338350000000     0          
T        Si     0.400000000000     0.532500000000     0.339400000000     0          
T        Si     0.400000000000     0.936500000000     0.490550000000     0          
T        Si     0.500000000000     0.800900000000     0.496500000000     0          
T        Si     0.400000000000     0.619800000000     0.430150000000     0          
T        Si     0.500000000000     0.722900000000     0.466100000000     0          
T        Si     0.400000000000     0.985200000000     0.199500000000     0          
T        Si     0.400000000000     0.611100000000     0.004200000000     0          
T        Si     0.500000000000     0.668700000000     0.411650000000     0          
T        Si     0.400000000000     0.532500000000     0.410600000000     0          
T        Si     0.400000000000     0.063500000000     0.240550000000     0          
T        Si     0.500000000000     0.199100000000     0.246500000000     0          
T        Si     0.400000000000     0.380200000000     0.180150000000     0          
T        Si     0.500000000000     0.277100000000     0.216100000000     0          
T        Si     0.400000000000     0.014800000000     0.449500000000     0          
T        Si     0.400000000000     0.388900000000     0.254200000000     0          
T        Si     0.500000000000     0.331300000000     0.161650000000     0          
T        Si     0.400000000000     0.467500000000     0.160600000000     0          
T        Si     0.500000000000     0.563500000000     0.009450000000     0          
T        Si     0.400000000000     0.699100000000     0.003500000000     0          
T        Si     0.500000000000     0.880200000000     0.069850000000     0          
T        Si     0.400000000000     0.777100000000     0.033900000000     0          
T        Si     0.500000000000     0.514800000000     0.300500000000     0          
T        Si     0.500000000000     0.888900000000     0.495800000000     0          
T        Si     0.400000000000     0.831300000000     0.088350000000     0          
T        Si     0.500000000000     0.967500000000     0.089400000000     0          
T        Si     0.500000000000     0.436500000000     0.259450000000     0          
T        Si     0.400000000000     0.300900000000     0.253500000000     0          
T        Si     0.500000000000     0.119800000000     0.319850000000     0          
T        Si     0.400000000000     0.222900000000     0.283900000000     0          
T        Si     0.500000000000     0.485200000000     0.050500000000     0          
T        Si     0.500000000000     0.111100000000     0.245800000000     0          
T        Si     0.400000000000     0.168700000000     0.338350000000     0          
T        Si     0.500000000000     0.032500000000     0.339400000000     0          
T        Si     0.500000000000     0.436500000000     0.490550000000     0          
T        Si     0.400000000000     0.300900000000     0.496500000000     0          
T        Si     0.500000000000     0.119800000000     0.430150000000     0          
T        Si     0.400000000000     0.222900000000     0.466100000000     0          
T        Si     0.500000000000     0.485200000000     0.199500000000     0          
T        Si     0.500000000000     0.111100000000     0.004200000000     0          
T        Si     0.400000000000     0.168700000000     0.411650000000     0          
T        Si     0.500000000000     0.032500000000     0.410600000000     0          
T        Si     0.500000000000     0.563500000000     0.240550000000     0          
T        Si     0.400000000000     0.699100000000     0.246500000000     0          
T        Si     0.500000000000     0.880200000000     0.180150000000     0          
T        Si     0.400000000000     0.777100000000     0.216100000000     0          
T        Si     0.500000000000     0.514800000000     0.449500000000     0          
T        Si     0.500000000000     0.888900000000     0.254200000000     0          
T        Si     0.400000000000     0.831300000000     0.161650000000     0          
T        Si     0.500000000000     0.967500000000     0.160600000000     0          
T        Si     0.400000000000     0.063500000000     0.509450000000     0          
T        Si     0.500000000000     0.199100000000     0.503500000000     0          
T        Si     0.400000000000     0.380200000000     0.569850000000     0          
T        Si     0.500000000000     0.277100000000     0.533900000000     0          
T        Si     0.400000000000     0.014800000000     0.800500000000     0          
T        Si     0.400000000000     0.388900000000     0.995800000000     0          
T        Si     0.500000000000     0.331300000000     0.588350000000     0          
T        Si     0.400000000000     0.467500000000     0.589400000000     0          
T        Si     0.400000000000     0.936500000000     0.759450000000     0          
T        Si     0.500000000000     0.800900000000     0.753500000000     0          
T        Si     0.400000000000     0.619800000000     0.819850000000     0          
T        Si     0.500000000000     0.722900000000     0.783900000000     0          
T        Si     0.400000000000     0.985200000000     0.550500000000     0          
T        Si     0.400000000000     0.611100000000     0.745800000000     0          
T        Si     0.500000000000     0.668700000000     0.838350000000     0          
T        Si     0.400000000000     0.532500000000     0.839400000000     0          
T        Si     0.400000000000     0.936500000000     0.990550000000     0          
T        Si     0.500000000000     0.800900000000     0.996500000000     0          
T        Si     0.400000000000     0.619800000000     0.930150000000     0          
T        Si     0.500000000000     0.722900000000     0.966100000000     0          
T        Si     0.400000000000     0.985200000000     0.699500000000     0          
T        Si     0.400000000000     0.611100000000     0.504200000000     0          
T        Si     0.500000000000     0.668700000000     0.911650000000     0          
T        Si     0.400000000000     0.532500000000     0.910600000000     0          
T        Si     0.400000000000     0.063500000000     0.740550000000     0          
T        Si     0.500000000000     0.199100000000     0.746500000000     0          
T        Si     0.400000000000     0.380200000000     0.680150000000     0          
T        Si     0.500000000000     0.277100000000     0.716100000000     0          
T        Si     0.400000000000     0.014800000000     0.949500000000     0          
T        Si     0.400000000000     0.388900000000     0.754200000000     0          
T        Si     0.500000000000     0.331300000000     0.661650000000     0          
T        Si     0.400000000000     0.467500000000     0.660600000000     0          
T        Si     0.500000000000     0.563500000000     0.509450000000     0          
T        Si     0.400000000000     0.699100000000     0.503500000000     0          
T        Si     0.500000000000     0.880200000000     0.569850000000     0          
T        Si     0.400000000000     0.777100000000     0.533900000000     0          
T        Si     0.500000000000     0.514800000000     0.800500000000     0          
T        Si     0.500000000000     0.888900000000     0.995800000000     0          
T        Si     0.400000000000     0.831300000000     0.588350000000     0          
T        Si     0.500000000000     0.967500000000     0.589400000000     0          
T        Si     0.500000000000     0.436500000000     0.759450000000     0          
T        Si     0.400000000000     0.300900000000     0.753500000000     0          
T        Si     0.500000000000     0.119800000000     0.819850000000     0          
T        Si     0.400000000000     0.222900000000     0.783900000000     0          
T        Si     0.500000000000     0.485200000000     0.550500000000     0          
T        Si     0.500000000000     0.111100000000     0.745800000000     0          
T        Si     0.400000000000     0.168700000000     0.838350000000     0          
T        Si     0.500000000000     0.032500000000     0.839400000000     0          
T        Si     0.500000000000     0.436500000000     0.990550000000     0          
T        Si     0.400000000000     0.300900000000     0.996500000000     0          
T        Si     0.500000000000     0.119800000000     0.930150000000     0          
T        Si     0.400000000000     0.222900000000     0.966100000000     0          
T        Si     0.500000000000     0.485200000000     0.699500000000     0          
T        Si     0.500000000000     0.111100000000     0.504200000000     0          
T        Si     0.400000000000     0.168700000000     0.911650000000     0          
T        Si     0.500000000000     0.032500000000     0.910600000000     0          
T        Si     0.500000000000     0.563500000000     0.740550000000     0          
T        Si     0.400000000000     0.699100000000     0.746500000000     0          
T        Si     0.500000000000     0.880200000000     0.680150000000     0          
T        Si     0.400000000000     0.777100000000     0.716100000000     0          
T        Si     0.500000000000     0.514800000000     0.949500000000     0          
T        Si     0.500000000000     0.888900000000     0.754200000000     0          
T        Si     0.400000000000     0.831300000000     0.661650000000     0          
T        Si     0.500000000000     0.967500000000     0.660600000000     0          
T        Si     0.600000000000     0.063500000000     0.009450000000     0          
T        Si     0.700000000000     0.199100000000     0.003500000000     0          
T        Si     0.600000000000     0.380200000000     0.069850000000     0          
T        Si     0.700000000000     0.277100000000     0.033900000000     0          
T        Si     0.600000000000     0.014800000000     0.300500000000     0          
T        Si     0.600000000000     0.388900000000     0.495800000000     0          
T        Si     0.700000000000     0.331300000000     0.088350000000     0          
T        Si     0.600000000000     0.467500000000     0.089400000000     0          
T        Si     0.600000000000     0.936500000000     0.259450000000     0          
T        Si     0.700000000000     0.800900000000     0.253500000000     0          
T        Si     0.600000000000     0.619800000000     0.319850000000     0          
T        Si     0.700000000000     0.722900000000     0.283900000000     0          
T        Si     0.600000000000     0.985200000000     0.050500000000     0          
T        Si     0.600000000000     0.611100000000     0.245800000000     0          
T        Si     0.700000000000     0.668700000000     0.338350000000     0          
T        Si     0.600000000000     0.532500000000     0.339400000000     0          
T        Si     0.600000000000     0.936500000000     0.490550000000     0          
T        Si     0.700000000000     0.800900000000     0.496500000000     0          
T        Si     0.600000000000     0.619800000000     0.430150000000     0          
T        Si     0.700000000000     0.722900000000     0.466100000000     0          
T        Si     0.600000000000     0.985200000000     0.199500000000     0          
T        Si     0.600000000000     0.611100000000     0.004200000000     0          
T        Si     0.700000000000     0.668700000000     0.411650000000     0          
T        Si     0.600000000000     0.532500000000     0.410600000000     0          
T        Si     0.600000000000     0.063500000000     0.240550000000     0          
T        Si     0.700000000000     0.199100000000     0.246500000000     0          
T        Si     0.600000000000     0.380200000000     0.180150000000     0          
T        Si     0.700000000000     0.277100000000     0.216100000000     0          
T        Si     0.600000000000     0.014800000000     0.449500000000     0          
T        Si     0.600000000000     0.388900000000     0.254200000000     0          
T        Si     0.700000000000     0.331300000000     0.161650000000     0          
T        Si     0.600000000000     0.467500000000     0.160600000000     0          
T        Si     0.700000000000     0.563500000000     0.009450000000     0          
T        Si     0.600000000000     0.699100000000     0.003500000000     0          
T        Si     0.700000000000     0.880200000000     0.069850000000     0          
T        Si     0.600000000000     0.777100000000     0.033900000000     0          
T        Si     0.700000000000     0.514800000000     0.300500000000     0          
T        Si     0.700000000000     0.888900000000     0.495800000000     0          
T        Si     0.600000000000     0.831300000000     0.088350000000     0          
T        Si     0.700000000000     0.967500000000     0.089400000000     0          
T        Si     0.700000000000     0.436500000000     0.259450000000     0          
T        Si     0.600000000000     0.300900000000     0.253500000000     0          
T        Si     0.700000000000     0.119800000000     0.319850000000     0          
T        Si     0.600000000000     0.222900000000     0.283900000000     0          
T        Si     0.700000000000     0.485200000000     0.050500000000     0          
T        Si     0.700000000000     0.111100000000     0.245800000000     0          
T        Si     0.600000000000     0.168700000000     0.338350000000     0          
T        Si     0.700000000000     0.032500000000     0.339400000000     0          
T        Si     0.700000000000     0.436500000000     0.490550000000     0          
T        Si     0.600000000000     0.300900000000     0.496500000000     0          
T        Si     0.700000000000     0.119800000000     0.430150000000     0          
T        Si     0.600000000000     0.222900000000     0.466100000000     0          
T        Si     0.700000000000     0.485200000000     0.199500000000     0          
T        Si     0.700000000000     0.111100000000     0.004200000000     0          
T        Si     0.600000000000     0.168700000000     0.411650000000     0          
T        Si     0.700000000000     0.032500000000     0.410600000000     0          
T        Si     0.700000000000     0.563500000000     0.240550000000     0          
T        Si     0.600000000000     0.699100000000     0.246500000000     0          
T        Si     0.700000000000     0.880200000000     0.180150000000     0          
T        Si     0.600000000000     0.777100000000     0.216100000000     0          
T        Si     0.700000000000     0.514800000000     0.449500000000     0          
T        Si     0.700000000000     0.888900000000     0.254200000000     0          
T        Si     0.600000000000     0.831300000000     0.161650000000     0          
T        Si     0.700000000000     0.967500000000     0.160600000000     0          
T        Si     0.600000000000     0.063500000000     0.509450000000     0          
T        Si     0.700000000000     0.199100000000     0.503500000000     0          
T        Si     0.600000000000     0.380200000000     0.569850000000     0          
T        Si     0.700000000000     0.277100000000     0.533900000000     0          
T        Si     0.600000000000     0.014800000000     0.800500000000     0          
T        Si     0.600000000000     0.388900000000     0.995800000000     0          
T        Si     0.700000000000     0.331300000000     0.588350000000     0          
T        Si     0.600000000000     0.467500000000     0.589400000000     0          
T        Si     0.600000000000     0.936500000000     0.759450000000     0          
T        Si     0.700000000000     0.800900000000     0.753500000000     0          
T        Si     0.600000000000     0.619800000000     0.819850000000     0          
T        Si     0.700000000000     0.722900000000     0.783900000000     0          
T        Si     0.600000000000     0.985200000000     0.550500000000     0          
T        Si     0.600000000000     0.611100000000     0.745800000000     0          
T        Si     0.700000000000     0.668700000000     0.838350000000     0          
T        Si     0.600000000000     0.532500000000     0.839400000000     0          
T        Si     0.600000000000     0.936500000000     0.990550000000     0          
T        Si     0.700000000000     0.800900000000     0.996500000000     0          
T        Si     0.600000000000     0.619800000000     0.930150000000     0          
T        Si     0.700000000000     0.722900000000     0.966100000000     0          
T        Si     0.600000000000     0.985200000000     0.699500000000     0          
T        Si     0.600000000000     0.611100000000     0.504200000000     0          
T        Si     0.700000000000     0.668700000000     0.911650000000     0          
T        Si     0.600000000000     0.532500000000     0.910600000000     0          
T        Si     0.600000000000     0.063500000000     0.740550000000     0          
T        Si     0.700000000000     0.199100000000     0.746500000000     0          
T        Si     0.600000000000     0.380200000000     0.680150000000     0          
T        Si     0.700000000000     0.277100000000     0.716100000000     0          
T        Si     0.600000000000     0.014800000000     0.949500000000     0          
T        Si     0.600000000000     0.388900000000     0.754200000000     0          
T        Si     0.700000000000     0.331300000000     0.661650000000     0          
T        Si     0.600000000000     0.467500000000     0.660600000000     0          
T        Si     0.700000000000     0.563500000000     0.509450000000     0          
T        Si     0.600000000000     0.699100000000     0.503500000000     0          
T        Si     0.700000000000     0.880200000000     0.569850000000     0          
T        Si     0.600000000000     0.777100000000     0.533900000000     0          
T        Si     0.700000000000     0.514800000000     0.800500000000     0          
T        Si     0.700000000000     0.888900000000     0.995800000000     0          
T        Si     0.600000000000     0.831300000000     0.588350000000     0          
T        Si     0.700000000000     0.967500000000     0.589400000000     0          
T        Si     0.700000000000     0.436500000000     0.759450000000     0          
T        Si     0.600000000000     0.300900000000     0.753500000000     0          
T        Si     0.700000000000     0.119800000000     0.819850000000     0          
T        Si     0.600000000000     0.222900000000     0.783900000000     0          
T        Si     0.700000000000     0.485200000000     0.550500000000     0          
T        Si     0.700000000000     0.111100000000     0.745800000000     0          
T        Si     0.600000000000     0.168700000000     0.838350000000     0          
T        Si     0.700000000000     0.032500000000     0.839400000000     0          
T        Si     0.700000000000     0.436500000000     0.990550000000     0          
T        Si     0.600000000000     0.300900000000     0.996500000000     0          
T        Si     0.700000000000     0.119800000000     0.930150000000     0          
T        Si     0.600000000000     0.222900000000     0.966100000000     0          
T        Si     0.700000000000     0.485200000000     0.699500000000     0          
T        Si     0.700000000000     0.111100000000     0.504200000000     0          
T        Si     0.600000000000     0.168700000000     0.911650000000     0          
T        Si     0.700000000000     0.032500000000     0.910600000000     0          
T        Si     0.700000000000     0.563500000000     0.740550000000     0          
T        Si     0.600000000000     0.699100000000     0.746500000000     0          
T        Si     0.700000000000     0.880200000000     0.680150000000     0          
T        Si     0.600000000000     0.777100000000     0.716100000000     0          
T        Si     0.700000000000     0.514800000000     0.949500000000     0          
T        Si     0.700000000000     0.888900000000     0.754200000000     0          
T        Si     0.600000000000     0.831300000000     0.661650000000     0          
T        Si     0.700000000000     0.967500000000     0.660600000000     0          
T        Si     0.800000000000     0.063500000000     0.009450000000     0          
T        Si     0.900000000000     0.199100000000     0.003500000000     0          
T        Si     0.800000000000     0.380200000000     0.069850000000     0          
T        Si     0.900000000000     0.277100000000     0.033900000000     0          
T        Si     0.800000000000     0.014800000000     0.300500000000     0          
T        Si     0.800000000000     0.388900000000     0.495800000000     0          
T        Si     0.900000000000     0.331300000000     0.088350000000     0          
T        Si     0.800000000000     0.467500000000     0.089400000000     0          
T        Si     0.800000000000     0.936500000000     0.259450000000     0          
T        Si     0.900000000000     0.800900000000     0.253500000000     0          
T        Si     0.800000000000     0.619800000000     0.319850000000     0          
T        Si     0.900000000000     0.722900000000     0.283900000000     0          
T        Si     0.800000000000     0.985200000000     0.050500000000     0          
T        Si     0.800000000000     0.611100000000     0.245800000000     0          
T        Si     0.900000000000     0.668700000000     0.338350000000     0          
T        Si     0.800000000000     0.532500000000     0.339400000000     0          
T        Si     0.800000000000     0.936500000000     0.490550000000     0          
T        Si     0.900000000000     0.800900000000     0.496500000000     0          
T        Si     0.800000000000     0.619800000000     0.430150000000     0          
T        Si     0.900000000000     0.722900000000     0.466100000000     0          
T        Si     0.800000000000     0.985200000000     0.199500000000     0          
T        Si     0.800000000000     0.611100000000     0.004200000000     0          
T        Si     0.900000000000     0.668700000000     0.411650000000     0          
T        Si     0.800000000000     0.532500000000     0.410600000000     0          
T        Si     0.800000000000     0.063500000000     0.240550000000     0          
T        Si     0.900000000000     0.199100000000     0.246500000000     0          
T        Si     0.800000000000     0.380200000000     0.180150000000     0          
T        Si     0.900000000000     0.277100000000     0.216100000000     0          
T        Si     0.800000000000     0.014800000000     0.449500000000     0          
T        Si     0.800000000000     0.388900000000     0.254200000000     0          
T        Si     0.900000000000     0.331300000000     0.161650000000     0          
T        Si     0.800000000000     0.467500000000     0.160600000000     0          
T        Si     0.900000000000     0.563500000000     0.009450000000     0          
T        Si     0.800000000000     0.699100000000     0.003500000000     0          
T        Si     0.900000000000     0.880200000000     0.069850000000     0          
T        Si     0.800000000000     0.777100000000     0.033900000000     0          
T        Si     0.900000000000     0.514800000000     0.300500000000     0          
T        Si     0.900000000000     0.888900000000     0.495800000000     0          
T        Si     0.800000000000     0.831300000000     0.088350000000     0          
T        Si     0.900000000000     0.967500000000     0.089400000000     0          
T        Si     0.900000000000     0.436500000000     0.259450000000     0          
T        Si     0.800000000000     0.300900000000     0.253500000000     0          
T        Si     0.900000000000     0.119800000000     0.319850000000     0          
T        Si     0.800000000000     0.222900000000     0.283900000000     0          
T        Si     0.900000000000     0.485200000000     0.050500000000     0          
T        Si     0.900000000000     0.111100000000     0.245800000000     0          
T        Si     0.800000000000     0.168700000000     0.338350000000     0          
T        Si     0.900000000000     0.032500000000     0.339400000000     0          
T        Si     0.900000000000     0.436500000000     0.490550000000     0          
T        Si     0.800000000000     0.300900000000     0.496500000000     0          
T        Si     0.900000000000     0.119800000000     0.430150000000     0          
T        Si     0.800000000000     0.222900000000     0.466100000000     0          
T        Si     0.900000000000     0.485200000000     0.199500000000     0          
T        Si     0.900000000000     0.111100000000     0.004200000000     0          
T        Si     0.800000000000     0.168700000000     0.411650000000     0          
T        Si     0.900000000000     0.032500000000     0.410600000000     0          
T        Si     0.900000000000     0.563500000000     0.240550000000     0          
T        Si     0.800000000000     0.699100000000     0.246500000000     0          
T        Si     0.900000000000     0.880200000000     0.180150000000     0          
T        Si     0.800000000000     0.777100000000     0.216100000000     0          
T        Si     0.900000000000     0.514800000000     0.449500000000     0          
T        Si     0.900000000000     0.888900000000     0.254200000000     0          
T        Si     0.800000000000     0.831300000000     0.161650000000     0          
T        Si     0.900000000000     0.967500000000     0.160600000000     0          
T        Si     0.800000000000     0.063500000000     0.509450000000     0          
T        Si     0.900000000000     0.199100000000     0.503500000000     0          
T        Si     0.800000000000     0.380200000000     0.569850000000     0          
T        Si     0.900000000000     0.277100000000     0.533900000000     0          
T        Si     0.800000000000     0.014800000000     0.800500000000     0          
T        Si     0.800000000000     0.388900000000     0.995800000000     0          
T        Si     0.900000000000     0.331300000000     0.588350000000     0          
T        Si     0.800000000000     0.467500000000     0.589400000000     0          
T        Si     0.800000000000     0.936500000000     0.759450000000     0          
T        Si     0.900000000000     0.800900000000     0.753500000000     0          
T        Si     0.800000000000     0.619800000000     0.819850000000     0          
T        Si     0.900000000000     0.722900000000     0.783900000000     0          
T        Si     0.800000000000     0.985200000000     0.550500000000     0          
T        Si     0.800000000000     0.611100000000     0.745800000000     0          
T        Si     0.900000000000     0.668700000000     0.838350000000     0          
T        Si     0.800000000000     0.532500000000     0.839400000000     0          
T        Si     0.800000000000     0.936500000000     0.990550000000     0          
T        Si     0.900000000000     0.800900000000     0.996500000000     0          
T        Si     0.800000000000     0.619800000000     0.930150000000     0          
T        Si     0.900000000000     0.722900000000     0.966100000000     0          
T        Si     0.800000000000     0.985200000000     0.699500000000     0          
T        Si     0.800000000000     0.611100000000     0.504200000000     0          
T        Si     0.900000000000     0.668700000000     0.911650000000     0          
T        Si     0.800000000000     0.532500000000     0.910600000000     0          
T        Si     0.800000000000     0.063500000000     0.740550000000     0          
T        Si     0.900000000000     0.199100000000     0.746500000000     0          
T        Si     0.800000000000     0.380200000000     0.680150000000     0          
T        Si     0.900000000000     0.277100000000     0.716100000000     0          
T        Si     0.800000000000     0.014800000000     0.949500000000     0          
T        Si     0.800000000000     0.388900000000     0.754200000000     0          
T        Si     0.900000000000     0.331300000000     0.661650000000     0          
T        Si     0.800000000000     0.467500000000     0.660600000000     0          
T        Si     0.900000000000     0.563500000000     0.509450000000     0          
T        Si     0.800000000000     0.699100000000     0.503500000000     0          
T        Si     0.900000000000     0.880200000000     0.569850000000     0          
T        Si     0.800000000000     0.777100000000     0.533900000000     0          
T        Si     0.900000000000     0.514800000000     0.800500000000     0          
T        Si     0.900000000000     0.888900000000     0.995800000000     0          
T        Si     0.800000000000     0.831300000000     0.588350000000     0          
T        Si     0.900000000000     0.967500000000     0.589400000000     0          
T        Si     0.900000000000     0.436500000000     0.759450000000     0          
T        Si     0.800000000000     0.300900000000     0.753500000000     0          
T        Si     0.900000000000     0.119800000000     0.819850000000     0          
T        Si     0.800000000000     0.222900000000     0.783900000000     0          
T        Si     0.900000000000     0.485200000000     0.550500000000     0          
T        Si     0.900000000000     0.111100000000     0.745800000000     0          
T        Si     0.800000000000     0.168700000000     0.838350000000     0          
T        Si     0.900000000000     0.032500000000     0.839400000000     0          
T        Si     0.900000000000     0.436500000000     0.990550000000     0          
T        Si     0.800000000000     0.300900000000     0.996500000000     0          
T        Si     0.900000000000     0.119800000000     0.930150000000     0          
T        Si     0.800000000000     0.222900000000     0.966100000000     0          
T        Si     0.900000000000     0.485200000000     0.699500000000     0          
T        Si     0.900000000000     0.111100000000     0.504200000000     0          
T        Si     0.800000000000     0.168700000000     0.911650000000     0          
T        Si     0.900000000000     0.032500000000     0.910600000000     0          
T        Si     0.900000000000     0.563500000000     0.740550000000     0          
T        Si     0.800000000000     0.699100000000     0.746500000000     0          
T        Si     0.900000000000     0.880200000000     0.680150000000     0          
T        Si     0.800000000000     0.777100000000     0.716100000000     0          
T        Si     0.900000000000     0.514800000000     0.949500000000     0          
T        Si     0.900000000000     0.888900000000     0.754200000000     0          
T        Si     0.800000000000     0.831300000000     0.661650000000     0          
T        Si     0.900000000000     0.967500000000     0.660600000000     0          
O        O      0.000000000000     0.050900000000     0.473400000000     0          
O        O      0.049980000000     0.089000000000     0.016800000000     0          
O        O      0.000000000000     0.025400000000     0.031150000000     0          
O        O      0.050000000000     0.205500000000     0.482550000000     0          
O        O      0.100000000000     0.230300000000     0.031500000000     0          
O        O      0.100000000000     0.155300000000     0.016800000000     0          
O        O      0.000000000000     0.420600000000     0.088850000000     0          
O        O      0.049980000000     0.355700000000     0.079050000000     0          
O        O      0.000000000000     0.389200000000     0.033150000000     0          
O        O      0.100000000000     0.290600000000     0.069750000000     0          
O        O      0.049980000000     0.016500000000     0.322050000000     0          
O        O      0.100000000000     0.322200000000     0.125000000000     0          
O        O      0.000000000000     0.482100000000     0.125000000000     0          
O        O      0.000000000000     0.949100000000     0.223400000000     0          
O        O      0.150020000000     0.911000000000     0.266800000000     0          
O        O      0.000000000000     0.974600000000     0.281150000000     0          
O        O      0.150000000000     0.794500000000     0.232550000000     0          
O        O      0.100000000000     0.769700000000     0.281500000000     0          
O        O      0.100000000000     0.844700000000     0.266800000000     0          
O        O      0.000000000000     0.579400000000     0.338850000000     0          
O        O      0.150020000000     0.644300000000     0.329050000000     0          
O        O      0.000000000000     0.610800000000     0.283150000000     0          
O        O      0.100000000000     0.709400000000     0.319750000000     0          
O        O      0.150020000000     0.983500000000     0.072050000000     0          
O        O      0.100000000000     0.677800000000     0.375000000000     0          
O        O      0.000000000000     0.517900000000     0.375000000000     0          
O        O      0.000000000000     0.949100000000     0.026600000000     0          
O        O      0.049980000000     0.911000000000     0.483200000000     0          
O        O      0.000000000000     0.974600000000     0.468850000000     0          
O        O      0.050000000000     0.794500000000     0.017450000000     0          
O        O      0.100000000000     0.769700000000     0.468500000000     0          
O        O      0.100000000000     0.844700000000     0.483200000000     0          
O        O      0.000000000000     0.579400000000     0.411150000000     0          
O        O      0.049980000000     0.644300000000     0.420950000000     0          
O        O      0.000000000000     0.610800000000     0.466850000000     0          
O        O      0.100000000000     0.709400000000     0.430250000000     0          
O        O      0.049980000000     0.983500000000     0.177950000000     0          
O        O      0.000000000000     0.050900000000     0.276600000000     0          
O        O      0.150020000000     0.089000000000     0.233200000000     0          
O        O      0.000000000000     0.025400000000     0.218850000000     0          
O        O      0.150000000000     0.205500000000     0.267450000000     0          
O        O      0.100000000000     0.230300000000     0.218500000000     0          
O        O      0.100000000000     0.155300000000     0.233200000000     0          
O        O      0.000000000000     0.420600000000     0.161150000000     0          
O        O      0.150020000000     0.355700000000     0.170950000000     0          
O        O      0.000000000000     0.389200000000     0.216850000000     0          
O        O      0.100000000000     0.290600000000     0.180250000000     0          
O        O      0.150020000000     0.016500000000     0.427950000000     0          
O        O      0.150020000000     0.911000000000     0.483200000000     0          
O        O      0.150000000000     0.794500000000     0.017450000000     0          
O        O      0.150020000000     0.644300000000     0.420950000000     0          
O        O      0.150020000000     0.983500000000     0.177950000000     0          
O        O      0.049980000000     0.089000000000     0.233200000000     0          
O        O      0.050000000000     0.205500000000     0.267450000000     0          
O        O      0.049980000000     0.355700000000     0.170950000000     0          
O        O      0.049980000000     0.016500000000     0.427950000000     0          
O        O      0.150020000000     0.089000000000     0.016800000000     0          
O        O      0.150000000000     0.205500000000     0.482550000000     0          
O        O      0.150020000000     0.355700000000     0.079050000000     0          
O        O      0.150020000000     0.016500000000     0.322050000000     0          
O        O      0.049980000000     0.911000000000     0.266800000000     0          
O        O      0.050000000000     0.794500000000     0.232550000000     0          
O        O      0.049980000000     0.644300000000     0.329050000000     0          
O        O      0.049980000000     0.983500000000     0.072050000000     0          
O        O      0.100000000000     0.550900000000     0.473400000000     0          
O        O      0.149980000000     0.589000000000     0.016800000000     0          
O        O      0.100000000000     0.525400000000     0.031150000000     0          
O        O      0.150000000000     0.705500000000     0.482550000000     0          
O        O      0.000000000000     0.730300000000     0.031500000000     0          
O        O      0.000000000000     0.655300000000     0.016800000000     0          
O        O      0.100000000000     0.920600000000     0.088850000000     0          
O        O      0.149980000000     0.855700000000     0.079050000000     0          
O        O      0.100000000000     0.889200000000     0.033150000000     0          
O        O      0.000000000000     0.790600000000     0.069750000000     0          
O        O      0.149980000000     0.516500000000     0.322050000000     0          
O        O      0.000000000000     0.822200000000     0.125000000000     0          
O        O      0.100000000000     0.982100000000     0.125000000000     0          
O        O      0.100000000000     0.449100000000     0.223400000000     0          
O        O      0.050020000000     0.411000000000     0.266800000000     0          
O        O      0.100000000000     0.474600000000     0.281150000000     0          
O        O      0.050000000000     0.294500000000     0.232550000000     0          
O        O      0.000000000000     0.269700000000     0.281500000000     0          
O        O      0.000000000000     0.344700000000     0.266800000000     0          
O        O      0.100000000000     0.079400000000     0.338850000000     0          
O        O      0.050020000000     0.144300000000     0.329050000000     0          
O        O      0.100000000000     0.110800000000     0.283150000000     0          
O        O      0.000000000000     0.209400000000     0.319750000000     0          
O        O      0.050020000000     0.483500000000     0.072050000000     0          
O        O      0.000000000000     0.177800000000     0.375000000000     0          
O        O      0.100000000000     0.017900000000     0.375000000000     0          
O        O      0.100000000000     0.449100000000     0.026600000000     0          
O        O      0.149980000000     0.411000000000     0.483200000000     0          
O        O      0.100000000000     0.474600000000     0.468850000000     0          
O        O      0.150000000000     0.294500000000     0.017450000000     0          
O        O      0.000000000000     0.269700000000     0.468500000000     0          
O        O      0.000000000000     0.344700000000     0.483200000000     0          
O        O      0.100000000000     0.079400000000     0.411150000000     0          
O        O      0.149980000000     0.144300000000     0.420950000000     0          
O        O      0.100000000000     0.110800000000     0.466850000000     0          
O        O      0.000000000000     0.209400000000     0.430250000000     0          
O        O      0.149980000000     0.483500000000     0.177950000000     0          
O        O      0.100000000000     0.550900000000     0.276600000000     0          
O        O      0.050020000000     0.589000000000     0.233200000000     0          
O        O      0.100000000000     0.525400000000     0.218850000000     0          
O        O      0.050000000000     0.705500000000     0.267450000000     0          
O        O      0.000000000000     0.730300000000     0.218500000000     0          
O        O      0.000000000000     0.655300000000     0.233200000000     0          
O        O      0.100000000000     0.920600000000     0.161150000000     0          
O        O      0.050020000000     0.855700000000     0.170950000000     0          
O        O      0.100000000000     0.889200000000     0.216850000000     0          
O        O      0.000000000000     0.790600000000     0.180250000000     0          
O        O      0.050020000000     0.516500000000     0.427950000000     0          
O        O      0.050020000000     0.411000000000     0.483200000000     0          
O        O      0.050000000000     0.294500000000     0.017450000000     0          
O        O      0.050020000000     0.144300000000     0.420950000000     0          
O        O      0.050020000000     0.483500000000     0.177950000000     0          
O        O      0.149980000000     0.589000000000     0.233200000000     0          
O        O      0.150000000000     0.705500000000     0.267450000000     0          
O        O      0.149980000000     0.855700000000     0.170950000000     0          
O        O      0.149980000000     0.516500000000     0.427950000000     0          
O        O      0.050020000000     0.589000000000     0.016800000000     0          
O        O      0.050000000000     0.705500000000     0.482550000000     0          
O        O      0.050020000000     0.855700000000     0.079050000000     0          
O        O      0.050020000000     0.516500000000     0.322050000000     0          
O        O      0.149980000000     0.411000000000     0.266800000000     0          
O        O      0.150000000000     0.294500000000     0.232550000000     0          
O        O      0.149980000000     0.144300000000     0.329050000000     0          
O        O      0.149980000000     0.483500000000     0.072050000000     0          
O        O      0.000000000000     0.050900000000     0.973400000000     0          
O        O      0.049980000000     0.089000000000     0.516800000000     0          
O        O      0.000000000000     0.025400000000     0.531150000000     0          
O        O      0.050000000000     0.205500000000     0.982550000000     0          
O        O      0.100000000000     0.230300000000     0.531500000000     0          
O        O      0.100000000000     0.155300000000     0.516800000000     0          
O        O      0.000000000000     0.420600000000     0.588850000000     0          
O        O      0.049980000000     0.355700000000     0.579050000000     0          
O        O      0.000000000000     0.389200000000     0.533150000000     0          
O        O      0.100000000000     0.290600000000     0.569750000000     0          
O        O      0.049980000000     0.016500000000     0.822050000000     0          
O        O      0.100000000000     0.322200000000     0.625000000000     0          
O        O      0.000000000000     0.482100000000     0.625000000000     0          
O        O      0.000000000000     0.949100000000     0.723400000000     0          
O        O      0.150020000000     0.911000000000     0.766800000000     0          
O        O      0.000000000000     0.974600000000     0.781150000000     0          
O        O      0.150000000000     0.794500000000     0.732550000000     0          
O        O      0.100000000000     0.769700000000     0.781500000000     0          
O        O      0.100000000000     0.844700000000     0.766800000000     0          
O        O      0.000000000000     0.579400000000     0.838850000000     0          
O        O      0.150020000000     0.644300000000     0.829050000000     0          
O        O      0.000000000000     0.610800000000     0.783150000000     0          
O        O      0.100000000000     0.709400000000     0.819750000000     0          
O        O      0.150020000000     0.983500000000     0.572050000000     0          
O        O      0.100000000000     0.677800000000     0.875000000000     0          
O        O      0.000000000000     0.517900000000     0.875000000000     0          
O        O      0.000000000000     0.949100000000     0.526600000000     0          
O        O      0.049980000000     0.911000000000     0.983200000000     0          
O        O      0.000000000000     0.974600000000     0.968850000000     0          
O        O      0.050000000000     0.794500000000     0.517450000000     0          
O        O      0.100000000000     0.769700000000     0.968500000000     0          
O        O      0.100000000000     0.844700000000     0.983200000000     0          
O        O      0.000000000000     0.579400000000     0.911150000000     0          
O        O      0.049980000000     0.644300000000     0.920950000000     0          
O        O      0.000000000000     0.610800000000     0.966850000000     0          
O        O      0.100000000000     0.709400000000     0.930250000000     0          
O        O      0.049980000000     0.983500000000     0.677950000000     0          
O        O      0.000000000000     0.050900000000     0.776600000000     0          
O        O      0.150020000000     0.089000000000     0.733200000000     0          
O        O      0.000000000000     0.025400000000     0.718850000000     0          
O        O      0.150000000000     0.205500000000     0.767450000000     0          
O        O      0.100000000000     0.230300000000     0.718500000000     0          
O        O      0.100000000000     0.155300000000     0.733200000000     0          
O        O      0.000000000000     0.420600000000     0.661150000000     0          
O        O      0.150020000000     0.355700000000     0.670950000000     0          
O        O      0.000000000000     0.389200000000     0.716850000000     0          
O        O      0.100000000000     0.290600000000     0.680250000000     0          
O        O      0.150020000000     0.016500000000     0.927950000000     0          
O        O      0.150020000000     0.911000000000     0.983200000000     0          
O        O      0.150000000000     0.794500000000     0.517450000000     0          
O        O      0.150020000000     0.644300000000     0.920950000000     0          
O        O      0.150020000000     0.983500000000     0.677950000000     0          
O        O      0.049980000000     0.089000000000     0.733200000000     0          
O        O      0.050000000000     0.205500000000     0.767450000000     0          
O        O      0.049980000000     0.355700000000     0.670950000000     0          
O        O      0.049980000000     0.016500000000     0.927950000000     0          
O        O      0.150020000000     0.089000000000     0.516800000000     0          
O        O      0.150000000000     0.205500000000     0.982550000000     0          
O        O      0.150020000000     0.355700000000     0.579050000000     0          
O        O      0.150020000000     0.016500000000     0.822050000000     0          
O        O      0.049980000000     0.911000000000     0.766800000000     0          
O        O      0.050000000000     0.794500000000     0.732550000000     0          
O        O      0.049980000000     0.644300000000     0.829050000000     0          
O        O      0.049980000000     0.983500000000     0.572050000000     0          
O        O      0.100000000000     0.550900000000     0.973400000000     0          
O        O      0.149980000000     0.589000000000     0.516800000000     0          
O        O      0.100000000000     0.525400000000     0.531150000000     0          
O        O      0.150000000000     0.705500000000     0.982550000000     0          
O        O      0.000000000000     0.730300000000     0.531500000000     0          
O        O      0.000000000000     0.655300000000     0.516800000000     0          
O        O      0.100000000000     0.920600000000     0.588850000000     0          
O        O      0.149980000000     0.855700000000     0.579050000000     0          
O        O      0.100000000000     0.889200000000     0.533150000000     0          
O        O      0.000000000000     0.790600000000     0.569750000000     0          
O        O      0.149980000000     0.516500000000     0.822050000000     0          
O        O      0.000000000000     0.822200000000     0.625000000000     0          
O        O      0.100000000000     0.982100000000     0.625000000000     0          
O        O      0.100000000000     0.449100000000     0.723400000000     0          
O        O      0.050020000000     0.411000000000     0.766800000000     0          
O        O      0.100000000000     0.474600000000     0.781150000000     0          
O        O      0.050000000000     0.294500000000     0.732550000000     0          
O        O      0.000000000000     0.269700000000     0.781500000000     0          
O        O      0.000000000000     0.344700000000     0.766800000000     0          
O        O      0.100000000000     0.079400000000     0.838850000000     0          
O        O      0.050020000000     0.144300000000     0.829050000000     0          
O        O      0.100000000000     0.110800000000     0.783150000000     0          
O        O      0.000000000000     0.209400000000     0.819750000000     0          
O        O      0.050020000000     0.483500000000     0.572050000000     0          
O        O      0.000000000000     0.177800000000     0.875000000000     0          
O        O      0.100000000000     0.017900000000     0.875000000000     0          
O        O      0.100000000000     0.449100000000     0.526600000000     0          
O        O      0.149980000000     0.411000000000     0.983200000000     0          
O        O      0.100000000000     0.474600000000     0.968850000000     0          
O        O      0.150000000000     0.294500000000     0.517450000000     0          
O        O      0.000000000000     0.269700000000     0.968500000000     0          
O        O      0.000000000000     0.344700000000     0.983200000000     0          
O        O      0.100000000000     0.079400000000     0.911150000000     0          
O        O      0.149980000000     0.144300000000     0.920950000000     0          
O        O      0.100000000000     0.110800000000     0.966850000000     0          
O        O      0.000000000000     0.209400000000     0.930250000000     0          
O        O      0.149980000000     0.483500000000     0.677950000000     0          
O        O      0.100000000000     0.550900000000     0.776600000000     0          
O        O      0.050020000000     0.589000000000     0.733200000000     0          
O        O      0.100000000000     0.525400000000     0.718850000000     0          
O        O      0.050000000000     0.705500000000     0.767450000000     0          
O        O      0.000000000000     0.730300000000     0.718500000000     0          
O        O      0.000000000000     0.655300000000     0.733200000000     0          
O        O      0.100000000000     0.920600000000     0.661150000000     0          
O        O      0.050020000000     0.855700000000     0.670950000000     0          
O        O      0.100000000000     0.889200000000     0.716850000000     0          
O        O      0.000000000000     0.790600000000     0.680250000000     0          
O        O      0.050020000000     0.516500000000     0.927950000000     0          
O        O      0.050020000000     0.411000000000     0.983200000000     0          
O        O      0.050000000000     0.294500000000     0.517450000000     0          
O        O      0.050020000000     0.144300000000     0.920950000000     0          
O        O      0.050020000000     0.483500000000     0.677950000000     0          
O        O      0.149980000000     0.589000000000     0.733200000000     0          
O        O      0.150000000000     0.705500000000     0.767450000000     0          
O        O      0.149980000000     0.855700000000     0.670950000000     0          
O        O      0.149980000000     0.516500000000     0.927950000000     0          
O        O      0.050020000000     0.589000000000     0.516800000000     0          
O        O      0.050000000000     0.705500000000     0.982550000000     0          
O        O      0.050020000000     0.855700000000     0.579050000000     0          
O        O      0.050020000000     0.516500000000     0.822050000000     0          
O        O      0.149980000000     0.411000000000     0.766800000000     0          
O        O      0.150000000000     0.294500000000     0.732550000000     0          
O        O      0.149980000000     0.144300000000     0.829050000000     0          
O        O      0.149980000000     0.483500000000     0.572050000000     0          
O        O      0.200000000000     0.050900000000     0.473400000000     0          
O        O      0.249980000000     0.089000000000     0.016800000000     0          
O        O      0.200000000000     0.025400000000     0.031150000000     0          
O        O      0.250000000000     0.205500000000     0.482550000000     0          
O        O      0.300000000000     0.230300000000     0.031500000000     0          
O        O      0.300000000000     0.155300000000     0.016800000000     0          
O        O      0.200000000000     0.420600000000     0.088850000000     0          
O        O      0.249980000000     0.355700000000     0.079050000000     0          
O        O      0.200000000000     0.389200000000     0.033150000000     0          
O        O      0.300000000000     0.290600000000     0.069750000000     0          
O        O      0.249980000000     0.016500000000     0.322050000000     0          
O        O      0.300000000000     0.322200000000     0.125000000000     0          
O        O      0.200000000000     0.482100000000     0.125000000000     0          
O        O      0.200000000000     0.949100000000     0.223400000000     0          
O        O      0.350020000000     0.911000000000     0.266800000000     0          
O        O      0.200000000000     0.974600000000     0.281150000000     0          
O        O      0.350000000000     0.794500000000     0.232550000000     0          
O        O      0.300000000000     0.769700000000     0.281500000000     0          
O        O      0.300000000000     0.844700000000     0.266800000000     0          
O        O      0.200000000000     0.579400000000     0.338850000000     0          
O        O      0.350020000000     0.644300000000     0.329050000000     0          
O        O      0.200000000000     0.610800000000     0.283150000000     0          
O        O      0.300000000000     0.709400000000     0.319750000000     0          
O        O      0.350020000000     0.983500000000     0.072050000000     0          
O        O      0.300000000000     0.677800000000     0.375000000000     0          
O        O      0.200000000000     0.517900000000     0.375000000000     0          
O        O      0.200000000000     0.949100000000     0.026600000000     0          
O        O      0.249980000000     0.911000000000     0.483200000000     0          
O        O      0.200000000000     0.974600000000     0.468850000000     0          
O        O      0.250000000000     0.794500000000     0.017450000000     0          
O        O      0.300000000000     0.769700000000     0.468500000000     0          
O        O      0.300000000000     0.844700000000     0.483200000000     0          
O        O      0.200000000000     0.579400000000     0.411150000000     0          
O        O      0.249980000000     0.644300000000     0.420950000000     0          
O        O      0.200000000000     0.610800000000     0.466850000000     0          
O        O      0.300000000000     0.709400000000     0.430250000000     0          
O        O      0.249980000000     0.983500000000     0.177950000000     0          
O        O      0.200000000000     0.050900000000     0.276600000000     0          
O        O      0.350020000000     0.089000000000     0.233200000000     0          
O        O      0.200000000000     0.025400000000     0.218850000000     0          
O        O      0.350000000000     0.205500000000     0.267450000000     0          
O        O      0.300000000000     0.230300000000     0.218500000000     0          
O        O      0.300000000000     0.155300000000     0.233200000000     0          
O        O      0.200000000000     0.420600000000     0.161150000000     0          
O        O      0.350020000000     0.355700000000     0.170950000000     0          
O        O      0.200000000000     0.389200000000     0.216850000000     0          
O        O      0.300000000000     0.290600000000     0.180250000000     0          
O        O      0.350020000000     0.016500000000     0.427950000000     0          
O        O      0.350020000000     0.911000000000     0.483200000000     0          
O        O      0.350000000000     0.794500000000     0.017450000000     0          
O        O      0.350020000000     0.644300000000     0.420950000000     0          
O        O      0.350020000000     0.983500000000     0.177950000000     0          
O        O      0.249980000000     0.089000000000     0.233200000000     0          
O        O      0.250000000000     0.205500000000     0.267450000000     0          
O        O      0.249980000000     0.355700000000     0.170950000000     0          
O        O      0.249980000000     0.016500000000     0.427950000000     0          
O        O      0.350020000000     0.089000000000     0.016800000000     0          
O        O      0.350000000000     0.205500000000     0.482550000000     0          
O        O      0.350020000000     0.355700000000     0.079050000000     0          
O        O      0.350020000000     0.016500000000     0.322050000000     0          
O        O      0.249980000000     0.911000000000     0.266800000000     0          
O        O      0.250000000000     0.794500000000     0.232550000000     0          
O        O      0.249980000000     0.644300000000     0.329050000000     0          
O        O      0.249980000000     0.983500000000     0.072050000000     0          
O        O      0.300000000000     0.550900000000     0.473400000000     0          
O        O      0.349980000000     0.589000000000     0.016800000000     0          
O        O      0.300000000000     0.525400000000     0.031150000000     0          
O        O      0.350000000000     0.705500000000     0.482550000000     0          
O        O      0.200000000000     0.730300000000     0.031500000000     0          
O        O      0.200000000000     0.655300000000     0.016800000000     0          
O        O      0.300000000000     0.920600000000     0.088850000000     0          
O        O      0.349980000000     0.855700000000     0.079050000000     0          
O        O      0.300000000000     0.889200000000     0.033150000000     0          
O        O      0.200000000000     0.790600000000     0.069750000000     0          
O        O      0.349980000000     0.516500000000     0.322050000000     0          
O        O      0.200000000000     0.822200000000     0.125000000000     0          
O        O      0.300000000000     0.982100000000     0.125000000000     0          
O        O      0.300000000000     0.449100000000     0.223400000000     0          
O        O      0.250020000000     0.411000000000     0.266800000000     0          
O        O      0.300000000000     0.474600000000     0.281150000000     0          
O        O      0.250000000000     0.294500000000     0.232550000000     0          
O        O      0.200000000000     0.269700000000     0.281500000000     0          
O        O      0.200000000000     0.344700000000     0.266800000000     0          
O        O      0.300000000000     0.079400000000     0.338850000000     0          
O        O      0.250020000000     0.144300000000     0.329050000000     0          
O        O      0.300000000000     0.110800000000     0.283150000000     0          
O        O      0.200000000000     0.209400000000     0.319750000000     0          
O        O      0.250020000000     0.483500000000     0.072050000000     0          
O        O      0.200000000000     0.177800000000     0.375000000000     0          
O        O      0.300000000000     0.017900000000     0.375000000000     0          
O        O      0.300000000000     0.449100000000     0.026600000000     0          
O        O      0.349980000000     0.411000000000     0.483200000000     0          
O        O      0.300000000000     0.474600000000     0.468850000000     0          
O        O      0.350000000000     0.294500000000     0.017450000000     0          
O        O      0.200000000000     0.269700000000     0.468500000000     0          
O        O      0.200000000000     0.344700000000     0.483200000000     0          
O        O      0.300000000000     0.079400000000     0.411150000000     0          
O        O      0.349980000000     0.144300000000     0.420950000000     0          
O        O      0.300000000000     0.110800000000     0.466850000000     0          
O        O      0.200000000000     0.209400000000     0.430250000000     0          
O        O      0.349980000000     0.483500000000     0.177950000000     0          
O        O      0.300000000000     0.550900000000     0.276600000000     0          
O        O      0.250020000000     0.589000000000     0.233200000000     0          
O        O      0.300000000000     0.525400000000     0.218850000000     0          
O        O      0.250000000000     0.705500000000     0.267450000000     0          
O        O      0.200000000000     0.730300000000     0.218500000000     0          
O        O      0.200000000000     0.655300000000     0.233200000000     0          
O        O      0.300000000000     0.920600000000     0.161150000000     0          
O        O      0.250020000000     0.855700000000     0.170950000000     0          
O        O      0.300000000000     0.889200000000     0.216850000000     0          
O        O      0.200000000000     0.790600000000     0.180250000000     0          
O        O      0.250020000000     0.516500000000     0.427950000000     0          
O        O      0.250020000000     0.411000000000     0.483200000000     0          
O        O      0.250000000000     0.294500000000     0.017450000000     0          
O        O      0.250020000000     0.144300000000     0.420950000000     0          
O        O      0.250020000000     0.483500000000     0.177950000000     0          
O        O      0.349980000000     0.589000000000     0.233200000000     0          
O        O      0.350000000000     0.705500000000     0.267450000000     0          
O        O      0.349980000000     0.855700000000     0.170950000000     0          
O        O      0.349980000000     0.516500000000     0.427950000000     0          
O        O      0.250020000000     0.589000000000     0.016800000000     0          
O        O      0.250000000000     0.705500000000     0.482550000000     0          
O        O      0.250020000000     0.855700000000     0.079050000000     0          
O        O      0.250020000000     0.516500000000     0.322050000000     0          
O        O      0.349980000000     0.411000000000     0.266800000000     0          
O        O      0.350000000000     0.294500000000     0.232550000000     0          
O        O      0.349980000000     0.144300000000     0.329050000000     0          
O        O      0.349980000000     0.483500000000     0.072050000000     0          
O        O      0.200000000000     0.050900000000     0.973400000000     0          
O        O      0.249980000000     0.089000000000     0.516800000000     0          
O        O      0.200000000000     0.025400000000     0.531150000000     0          
O        O      0.250000000000     0.205500000000     0.982550000000     0          
O        O      0.300000000000     0.230300000000     0.531500000000     0          
O        O      0.300000000000     0.155300000000     0.516800000000     0          
O        O      0.200000000000     0.420600000000     0.588850000000     0          
O        O      0.249980000000     0.355700000000     0.579050000000     0          
O        O      0.200000000000     0.389200000000     0.533150000000     0          
O        O      0.300000000000     0.290600000000     0.569750000000     0          
O        O      0.249980000000     0.016500000000     0.822050000000     0          
O        O      0.300000000000     0.322200000000     0.625000000000     0          
O        O      0.200000000000     0.482100000000     0.625000000000     0          
O        O      0.200000000000     0.949100000000     0.723400000000     0          
O        O      0.350020000000     0.911000000000     0.766800000000     0          
O        O      0.200000000000     0.974600000000     0.781150000000     0          
O        O      0.350000000000     0.794500000000     0.732550000000     0          
O        O      0.300000000000     0.769700000000     0.781500000000     0          
O        O      0.300000000000     0.844700000000     0.766800000000     0          
O        O      0.200000000000     0.579400000000     0.838850000000     0          
O        O      0.350020000000     0.644300000000     0.829050000000     0          
O        O      0.200000000000     0.610800000000     0.783150000000     0          
O        O      0.300000000000     0.709400000000     0.819750000000     0          
O        O      0.350020000000     0.983500000000     0.572050000000     0          
O        O      0.300000000000     0.677800000000     0.875000000000     0          
O        O      0.200000000000     0.517900000000     0.875000000000     0          
O        O      0.200000000000     0.949100000000     0.526600000000     0          
O        O      0.249980000000     0.911000000000     0.983200000000     0          
O        O      0.200000000000     0.974600000000     0.968850000000     0          
O        O      0.250000000000     0.794500000000     0.517450000000     0          
O        O      0.300000000000     0.769700000000     0.968500000000     0          
O        O      0.300000000000     0.844700000000     0.983200000000     0          
O        O      0.200000000000     0.579400000000     0.911150000000     0          
O        O      0.249980000000     0.644300000000     0.920950000000     0          
O        O      0.200000000000     0.610800000000     0.966850000000     0          
O        O      0.300000000000     0.709400000000     0.930250000000     0          
O        O      0.249980000000     0.983500000000     0.677950000000     0          
O        O      0.200000000000     0.050900000000     0.776600000000     0          
O        O      0.350020000000     0.089000000000     0.733200000000     0          
O        O      0.200000000000     0.025400000000     0.718850000000     0          
O        O      0.350000000000     0.205500000000     0.767450000000     0          
O        O      0.300000000000     0.230300000000     0.718500000000     0          
O        O      0.300000000000     0.155300000000     0.733200000000     0          
O        O      0.200000000000     0.420600000000     0.661150000000     0          
O        O      0.350020000000     0.355700000000     0.670950000000     0          
O        O      0.200000000000     0.389200000000     0.716850000000     0          
O        O      0.300000000000     0.290600000000     0.680250000000     0          
O        O      0.350020000000     0.016500000000     0.927950000000     0          
O        O      0.350020000000     0.911000000000     0.983200000000     0          
O        O      0.350000000000     0.794500000000     0.517450000000     0          
O        O      0.350020000000     0.644300000000     0.920950000000     0          
O        O      0.350020000000     0.983500000000     0.677950000000     0          
O        O      0.249980000000     0.089000000000     0.733200000000     0          
O        O      0.250000000000     0.205500000000     0.767450000000     0          
O        O      0.249980000000     0.355700000000     0.670950000000     0          
O        O      0.249980000000     0.016500000000     0.927950000000     0          
O        O      0.350020000000     0.089000000000     0.516800000000     0          
O        O      0.350000000000     0.205500000000     0.982550000000     0          
O        O      0.350020000000     0.355700000000     0.579050000000     0          
O        O      0.350020000000     0.016500000000     0.822050000000     0          
O        O      0.249980000000     0.911000000000     0.766800000000     0          
O        O      0.250000000000     0.794500000000     0.732550000000     0          
O        O      0.249980000000     0.644300000000     0.829050000000     0          
O        O      0.249980000000     0.983500000000     0.572050000000     0          
O        O      0.300000000000     0.550900000000     0.973400000000     0          
O        O      0.349980000000     0.589000000000     0.516800000000     0          
O        O      0.300000000000     0.525400000000     0.531150000000     0          
O        O      0.350000000000     0.705500000000     0.982550000000     0          
O        O      0.200000000000     0.730300000000     0.531500000000     0          
O        O      0.200000000000     0.655300000000     0.516800000000     0          
O        O      0.300000000000     0.920600000000     0.588850000000     0          
O        O      0.349980000000     0.855700000000     0.579050000000     0          
O        O      0.300000000000     0.889200000000     0.533150000000     0          
O        O      0.200000000000     0.790600000000     0.569750000000     0          
O        O      0.349980000000     0.516500000000     0.822050000000     0          
O        O      0.200000000000     0.822200000000     0.625000000000     0          
O        O      0.300000000000     0.982100000000     0.625000000000     0          
O        O      0.300000000000     0.449100000000     0.723400000000     0          
O        O      0.250020000000     0.411000000000     0.766800000000     0          
O        O      0.300000000000     0.474600000000     0.781150000000     0          
O        O      0.250000000000     0.294500000000     0.732550000000     0          
O        O      0.200000000000     0.269700000000     0.781500000000     0          
O        O      0.200000000000     0.344700000000     0.766800000000     0          
O        O      0.300000000000     0.079400000000     0.838850000000     0          
O        O      0.250020000000     0.144300000000     0.829050000000     0          
O        O      0.300000000000     0.110800000000     0.783150000000     0          
O        O      0.200000000000     0.209400000000     0.819750000000     0          
O        O      0.250020000000     0.483500000000     0.572050000000     0          
O        O      0.200000000000     0.177800000000     0.875000000000     0          
O        O      0.300000000000     0.017900000000     0.875000000000     0          
O        O      0.300000000000     0.449100000000     0.526600000000     0          
O        O      0.349980000000     0.411000000000     0.983200000000     0          
O        O      0.300000000000     0.474600000000     0.968850000000     0          
O        O      0.350000000000     0.294500000000     0.517450000000     0          
O        O      0.200000000000     0.269700000000     0.968500000000     0          
O        O      0.200000000000     0.344700000000     0.983200000000     0          
O        O      0.300000000000     0.079400000000     0.911150000000     0          
O        O      0.349980000000     0.144300000000     0.920950000000     0          
O        O      0.300000000000     0.110800000000     0.966850000000     0          
O        O      0.200000000000     0.209400000000     0.930250000000     0          
O        O      0.349980000000     0.483500000000     0.677950000000     0          
O        O      0.300000000000     0.550900000000     0.776600000000     0          
O        O      0.250020000000     0.589000000000     0.733200000000     0          
O        O      0.300000000000     0.525400000000     0.718850000000     0          
O        O      0.250000000000     0.705500000000     0.767450000000     0          
O        O      0.200000000000     0.730300000000     0.718500000000     0          
O        O      0.200000000000     0.655300000000     0.733200000000     0          
O        O      0.300000000000     0.920600000000     0.661150000000     0          
O        O      0.250020000000     0.855700000000     0.670950000000     0          
O        O      0.300000000000     0.889200000000     0.716850000000     0          
O        O      0.200000000000     0.790600000000     0.680250000000     0          
O        O      0.250020000000     0.516500000000     0.927950000000     0          
O        O      0.250020000000     0.411000000000     0.983200000000     0          
O        O      0.250000000000     0.294500000000     0.517450000000     0          
O        O      0.250020000000     0.144300000000     0.920950000000     0          
O        O      0.250020000000     0.483500000000     0.677950000000     0          
O        O      0.349980000000     0.589000000000     0.733200000000     0          
O        O      0.350000000000     0.705500000000     0.767450000000     0          
O        O      0.349980000000     0.855700000000     0.670950000000     0          
O        O      0.349980000000     0.516500000000     0.927950000000     0          
O        O      0.250020000000     0.589000000000     0.516800000000     0          
O        O      0.250000000000     0.705500000000     0.982550000000     0          
O        O      0.250020000000     0.855700000000     0.579050000000     0          
O        O      0.250020000000     0.516500000000     0.822050000000     0          
O        O      0.349980000000     0.411000000000     0.766800000000     0          
O        O      0.350000000000     0.294500000000     0.732550000000     0          
O        O      0.349980000000     0.144300000000     0.829050000000     0          
O        O      0.349980000000     0.483500000000     0.572050000000     0          
O        O      0.400000000000     0.050900000000     0.473400000000     0          
O        O      0.449980000000     0.089000000000     0.016800000000     0          
O        O      0.400000000000     0.025400000000     0.031150000000     0          
O        O      0.450000000000     0.205500000000     0.482550000000     0          
O        O      0.500000000000     0.230300000000     0.031500000000     0          
O        O      0.500000000000     0.155300000000     0.016800000000     0          
O        O      0.400000000000     0.420600000000     0.088850000000     0          
O        O      0.449980000000     0.355700000000     0.079050000000     0          
O        O      0.400000000000     0.389200000000     0.033150000000     0          
O        O      0.500000000000     0.290600000000     0.069750000000     0          
O        O      0.449980000000     0.016500000000     0.322050000000     0          
O        O      0.500000000000     0.322200000000     0.125000000000     0          
O        O      0.400000000000     0.482100000000     0.125000000000     0          
O        O      0.400000000000     0.949100000000     0.223400000000     0          
O        O      0.550020000000     0.911000000000     0.266800000000     0          
O        O      0.400000000000     0.974600000000     0.281150000000     0          
O        O      0.550000000000     0.794500000000     0.232550000000     0          
O        O      0.500000000000     0.769700000000     0.281500000000     0          
O        O      0.500000000000     0.844700000000     0.266800000000     0          
O        O      0.400000000000     0.579400000000     0.338850000000     0          
O        O      0.550020000000     0.644300000000     0.329050000000     0          
O        O      0.400000000000     0.610800000000     0.283150000000     0          
O        O      0.500000000000     0.709400000000     0.319750000000     0          
O        O      0.550020000000     0.983500000000     0.072050000000     0          
O        O      0.500000000000     0.677800000000     0.375000000000     0          
O        O      0.400000000000     0.517900000000     0.375000000000     0          
O        O      0.400000000000     0.949100000000     0.026600000000     0          
O        O      0.449980000000     0.911000000000     0.483200000000     0          
O        O      0.400000000000     0.974600000000     0.468850000000     0          
O        O      0.450000000000     0.794500000000     0.017450000000     0          
O        O      0.500000000000     0.769700000000     0.468500000000     0          
O        O      0.500000000000     0.844700000000     0.483200000000     0          
O        O      0.400000000000     0.579400000000     0.411150000000     0          
O        O      0.449980000000     0.644300000000     0.420950000000     0          
O        O      0.400000000000     0.610800000000     0.466850000000     0          
O        O      0.500000000000     0.709400000000     0.430250000000     0          
O        O      0.449980000000     0.983500000000     0.177950000000     0          
O        O      0.400000000000     0.050900000000     0.276600000000     0          
O        O      0.550020000000     0.089000000000     0.233200000000     0          
O        O      0.400000000000     0.025400000000     0.218850000000     0          
O        O      0.550000000000     0.205500000000     0.267450000000     0          
O        O      0.500000000000     0.230300000000     0.218500000000     0          
O        O      0.500000000000     0.155300000000     0.233200000000     0          
O        O      0.400000000000     0.420600000000     0.161150000000     0          
O        O      0.550020000000     0.355700000000     0.170950000000     0          
O        O      0.400000000000     0.389200000000     0.216850000000     0          
O        O      0.500000000000     0.290600000000     0.180250000000     0          
O        O      0.550020000000     0.016500000000     0.427950000000     0          
O        O      0.550020000000     0.911000000000     0.483200000000     0          
O        O      0.550000000000     0.794500000000     0.017450000000     0          
O        O      0.550020000000     0.644300000000     0.420950000000     0          
O        O      0.550020000000     0.983500000000     0.177950000000     0          
O        O      0.449980000000     0.089000000000     0.233200000000     0          
O        O      0.450000000000     0.205500000000     0.267450000000     0          
O        O      0.449980000000     0.355700000000     0.170950000000     0          
O        O      0.449980000000     0.016500000000     0.427950000000     0          
O        O      0.550020000000     0.089000000000     0.016800000000     0          
O        O      0.550000000000     0.205500000000     0.482550000000     0          
O        O      0.550020000000     0.355700000000     0.079050000000     0          
O        O      0.550020000000     0.016500000000     0.322050000000     0          
O        O      0.449980000000     0.911000000000     0.266800000000     0          
O        O      0.450000000000     0.794500000000     0.232550000000     0          
O        O      0.449980000000     0.644300000000     0.329050000000     0          
O        O      0.449980000000     0.983500000000     0.072050000000     0          
O        O      0.500000000000     0.550900000000     0.473400000000     0          
O        O      0.549980000000     0.589000000000     0.016800000000     0          
O        O      0.500000000000     0.525400000000     0.031150000000     0          
O        O      0.550000000000     0.705500000000     0.482550000000     0          
O        O      0.400000000000     0.730300000000     0.031500000000     0          
O        O      0.400000000000     0.655300000000     0.016800000000     0          
O        O      0.500000000000     0.920600000000     0.088850000000     0          
O        O      0.549980000000     0.855700000000     0.079050000000     0          
O        O      0.500000000000     0.889200000000     0.033150000000     0          
O        O      0.400000000000     0.790600000000     0.069750000000     0          
O        O      0.549980000000     0.516500000000     0.322050000000     0          
O        O      0.400000000000     0.822200000000     0.125000000000     0          
O        O      0.500000000000     0.982100000000     0.125000000000     0          
O        O      0.500000000000     0.449100000000     0.223400000000     0          
O        O      0.450020000000     0.411000000000     0.266800000000     0          
O        O      0.500000000000     0.474600000000     0.281150000000     0          
O        O      0.450000000000     0.294500000000     0.232550000000     0          
O        O      0.400000000000     0.269700000000     0.281500000000     0          
O        O      0.400000000000     0.344700000000     0.266800000000     0          
O        O      0.500000000000     0.079400000000     0.338850000000     0          
O        O      0.450020000000     0.144300000000     0.329050000000     0          
O        O      0.500000000000     0.110800000000     0.283150000000     0          
O        O      0.400000000000     0.209400000000     0.319750000000     0          
O        O      0.450020000000     0.483500000000     0.072050000000     0          
O        O      0.400000000000     0.177800000000     0.375000000000     0          
O        O      0.500000000000     0.017900000000     0.375000000000     0          
O        O      0.500000000000     0.449100000000     0.026600000000     0          
O        O      0.549980000000     0.411000000000     0.483200000000     0          
O        O      0.500000000000     0.474600000000     0.468850000000     0          
O        O      0.550000000000     0.294500000000     0.017450000000     0          
O        O      0.400000000000     0.269700000000     0.468500000000     0          
O        O      0.400000000000     0.344700000000     0.483200000000     0          
O        O      0.500000000000     0.079400000000     0.411150000000     0          
O        O      0.549980000000     0.144300000000     0.420950000000     0          
O        O      0.500000000000     0.110800000000     0.466850000000     0          
O        O      0.400000000000     0.209400000000     0.430250000000     0          
O        O      0.549980000000     0.483500000000     0.177950000000     0          
O        O      0.500000000000     0.550900000000     0.276600000000     0          
O        O      0.450020000000     0.589000000000     0.233200000000     0          
O        O      0.500000000000     0.525400000000     0.218850000000     0          
O        O      0.450000000000     0.705500000000     0.267450000000     0          
O        O      0.400000000000     0.730300000000     0.218500000000     0          
O        O      0.400000000000     0.655300000000     0.233200000000     0          
O        O      0.500000000000     0.920600000000     0.161150000000     0          
O        O      0.450020000000     0.855700000000     0.170950000000     0          
O        O      0.500000000000     0.889200000000     0.216850000000     0          
O        O      0.400000000000     0.790600000000     0.180250000000     0          
O        O      0.450020000000     0.516500000000     0.427950000000     0          
O        O      0.450020000000     0.411000000000     0.483200000000     0          
O        O      0.450000000000     0.294500000000     0.017450000000     0          
O        O      0.450020000000     0.144300000000     0.420950000000     0          
O        O      0.450020000000     0.483500000000     0.177950000000     0          
O        O      0.549980000000     0.589000000000     0.233200000000     0          
O        O      0.550000000000     0.705500000000     0.267450000000     0          
O        O      0.549980000000     0.855700000000     0.170950000000     0          
O        O      0.549980000000     0.516500000000     0.427950000000     0          
O        O      0.450020000000     0.589000000000     0.016800000000     0          
O        O      0.450000000000     0.705500000000     0.482550000000     0          
O        O      0.450020000000     0.855700000000     0.079050000000     0          
O        O      0.450020000000     0.516500000000     0.322050000000     0          
O        O      0.549980000000     0.411000000000     0.266800000000     0          
O        O      0.550000000000     0.294500000000     0.232550000000     0          
O        O      0.549980000000     0.144300000000     0.329050000000     0          
O        O      0.549980000000     0.483500000000     0.072050000000     0          
O        O      0.400000000000     0.050900000000     0.973400000000     0          
O        O      0.449980000000     0.089000000000     0.516800000000     0          
O        O      0.400000000000     0.025400000000     0.531150000000     0          
O        O      0.450000000000     0.205500000000     0.982550000000     0          
O        O      0.500000000000     0.230300000000     0.531500000000     0          
O        O      0.500000000000     0.155300000000     0.516800000000     0          
O        O      0.400000000000     0.420600000000     0.588850000000     0          
O        O      0.449980000000     0.355700000000     0.579050000000     0          
O        O      0.400000000000     0.389200000000     0.533150000000     0          
O        O      0.500000000000     0.290600000000     0.569750000000     0          
O        O      0.449980000000     0.016500000000     0.822050000000     0          
O        O      0.500000000000     0.322200000000     0.625000000000     0          
O        O      0.400000000000     0.482100000000     0.625000000000     0          
O        O      0.400000000000     0.949100000000     0.723400000000     0          
O        O      0.550020000000     0.911000000000     0.766800000000     0          
O        O      0.400000000000     0.974600000000     0.781150000000     0          
O        O      0.550000000000     0.794500000000     0.732550000000     0          
O        O      0.500000000000     0.769700000000     0.781500000000     0          
O        O      0.500000000000     0.844700000000     0.766800000000     0          
O        O      0.400000000000     0.579400000000     0.838850000000     0          
O        O      0.550020000000     0.644300000000     0.829050000000     0          
O        O      0.400000000000     0.610800000000     0.783150000000     0          
O        O      0.500000000000     0.709400000000     0.819750000000     0          
O        O      0.550020000000     0.983500000000     0.572050000000     0          
O        O      0.500000000000     0.677800000000     0.875000000000     0          
O        O      0.400000000000     0.517900000000     0.875000000000     0          
O        O      0.400000000000     0.949100000000     0.526600000000     0          
O        O      0.449980000000     0.911000000000     0.983200000000     0          
O        O      0.400000000000     0.974600000000     0.968850000000     0          
O        O      0.450000000000     0.794500000000     0.517450000000     0          
O        O      0.500000000000     0.769700000000     0.968500000000     0          
O        O      0.500000000000     0.844700000000     0.983200000000     0          
O        O      0.400000000000     0.579400000000     0.911150000000     0          
O        O      0.449980000000     0.644300000000     0.920950000000     0          
O        O      0.400000000000     0.610800000000     0.966850000000     0          
O        O      0.500000000000     0.709400000000     0.930250000000     0          
O        O      0.449980000000     0.983500000000     0.677950000000     0          
O        O      0.400000000000     0.050900000000     0.776600000000     0          
O        O      0.550020000000     0.089000000000     0.733200000000     0          
O        O      0.400000000000     0.025400000000     0.718850000000     0          
O        O      0.550000000000     0.205500000000     0.767450000000     0          
O        O      0.500000000000     0.230300000000     0.718500000000     0          
O        O      0.500000000000     0.155300000000     0.733200000000     0          
O        O      0.400000000000     0.420600000000     0.661150000000     0          
O        O      0.550020000000     0.355700000000     0.670950000000     0          
O        O      0.400000000000     0.389200000000     0.716850000000     0          
O        O      0.500000000000     0.290600000000     0.680250000000     0          
O        O      0.550020000000     0.016500000000     0.927950000000     0          
O        O      0.550020000000     0.911000000000     0.983200000000     0          
O        O      0.550000000000     0.794500000000     0.517450000000     0          
O        O      0.550020000000     0.644300000000     0.920950000000     0          
O        O      0.550020000000     0.983500000000     0.677950000000     0          
O        O      0.449980000000     0.089000000000     0.733200000000     0          
O        O      0.450000000000     0.205500000000     0.767450000000     0          
O        O      0.449980000000     0.355700000000     0.670950000000     0          
O        O      0.449980000000     0.016500000000     0.927950000000     0          
O        O      0.550020000000     0.089000000000     0.516800000000     0          
O        O      0.550000000000     0.205500000000     0.982550000000     0          
O        O      0.550020000000     0.355700000000     0.579050000000     0          
O        O      0.550020000000     0.016500000000     0.822050000000     0          
O        O      0.449980000000     0.911000000000     0.766800000000     0          
O        O      0.450000000000     0.794500000000     0.732550000000     0          
O        O      0.449980000000     0.644300000000     0.829050000000     0          
O        O      0.449980000000     0.983500000000     0.572050000000     0          
O        O      0.500000000000     0.550900000000     0.973400000000     0          
O        O      0.549980000000     0.589000000000     0.516800000000     0          
O        O      0.500000000000     0.525400000000     0.531150000000     0          
O        O      0.550000000000     0.705500000000     0.982550000000     0          
O        O      0.400000000000     0.730300000000     0.531500000000     0          
O        O      0.400000000000     0.655300000000     0.516800000000     0          
O        O      0.500000000000     0.920600000000     0.588850000000     0          
O        O      0.549980000000     0.855700000000     0.579050000000     0          
O        O      0.500000000000     0.889200000000     0.533150000000     0          
O        O      0.400000000000     0.790600000000     0.569750000000     0          
O        O      0.549980000000     0.516500000000     0.822050000000     0          
O        O      0.400000000000     0.822200000000     0.625000000000     0          
O        O      0.500000000000     0.982100000000     0.625000000000     0          
O        O      0.500000000000     0.449100000000     0.723400000000     0          
O        O      0.450020000000     0.411000000000     0.766800000000     0          
O        O      0.500000000000     0.474600000000     0.781150000000     0          
O        O      0.450000000000     0.294500000000     0.732550000000     0          
O        O      0.400000000000     0.269700000000     0.781500000000     0          
O        O      0.400000000000     0.344700000000     0.766800000000     0          
O        O      0.500000000000     0.079400000000     0.838850000000     0          
O        O      0.450020000000     0.144300000000     0.829050000000     0          
O        O      0.500000000000     0.110800000000     0.783150000000     0          
O        O      0.400000000000     0.209400000000     0.819750000000     0          
O        O      0.450020000000     0.483500000000     0.572050000000     0          
O        O      0.400000000000     0.177800000000     0.875000000000     0          
O        O      0.500000000000     0.017900000000     0.875000000000     0          
O        O      0.500000000000     0.449100000000     0.526600000000     0          
O        O      0.549980000000     0.411000000000     0.983200000000     0          
O        O      0.500000000000     0.474600000000     0.968850000000     0          
O        O      0.550000000000     0.294500000000     0.517450000000     0          
O        O      0.400000000000     0.269700000000     0.968500000000     0          
O        O      0.400000000000     0.344700000000     0.983200000000     0          
O        O      0.500000000000     0.079400000000     0.911150000000     0          
O        O      0.549980000000     0.144300000000     0.920950000000     0          
O        O      0.500000000000     0.110800000000     0.966850000000     0          
O        O      0.400000000000     0.209400000000     0.930250000000     0          
O        O      0.549980000000     0.483500000000     0.677950000000     0          
O        O      0.500000000000     0.550900000000     0.776600000000     0          
O        O      0.450020000000     0.589000000000     0.733200000000     0          
O        O      0.500000000000     0.525400000000     0.718850000000     0          
O        O      0.450000000000     0.705500000000     0.767450000000     0          
O        O      0.400000000000     0.730300000000     0.718500000000     0          
O        O      0.400000000000     0.655300000000     0.733200000000     0          
O        O      0.500000000000     0.920600000000     0.661150000000     0          
O        O      0.450020000000     0.855700000000     0.670950000000     0          
O        O      0.500000000000     0.889200000000     0.716850000000     0          
O        O      0.400000000000     0.790600000000     0.680250000000     0          
O        O      0.450020000000     0.516500000000     0.927950000000     0          
O        O      0.450020000000     0.411000000000     0.983200000000     0          
O        O      0.450000000000     0.294500000000     0.517450000000     0          
O        O      0.450020000000     0.144300000000     0.920950000000     0          
O        O      0.450020000000     0.483500000000     0.677950000000     0          
O        O      0.549980000000     0.589000000000     0.733200000000     0          
O        O      0.550000000000     0.705500000000     0.767450000000     0          
O        O      0.549980000000     0.855700000000     0.670950000000     0          
O        O      0.549980000000     0.516500000000     0.927950000000     0          
O        O      0.450020000000     0.589000000000     0.516800000000     0          
O        O      0.450000000000     0.705500000000     0.982550000000     0          
O        O      0.450020000000     0.855700000000     0.579050000000     0          
O        O      0.450020000000     0.516500000000     0.822050000000     0          
O        O      0.549980000000     0.411000000000     0.766800000000     0          
O        O      0.550000000000     0.294500000000     0.732550000000     0          
O        O      0.549980000000     0.144300000000     0.829050000000     0          
O        O      0.549980000000     0.483500000000     0.572050000000     0          
O        O      0.600000000000     0.050900000000     0.473400000000     0          
O        O      0.649980000000     0.089000000000     0.016800000000     0          
O        O      0.600000000000     0.025400000000     0.031150000000     0          
O        O      0.650000000000     0.205500000000     0.482550000000     0          
O        O      0.700000000000     0.230300000000     0.031500000000     0          
O        O      0.700000000000     0.155300000000     0.016800000000     0          
O        O      0.600000000000     0.420600000000     0.088850000000     0          
O        O      0.649980000000     0.355700000000     0.079050000000     0          
O        O      0.600000000000     0.389200000000     0.033150000000     0          
O        O      0.700000000000     0.290600000000     0.069750000000     0          
O        O      0.649980000000     0.016500000000     0.322050000000     0          
O        O      0.700000000000     0.322200000000     0.125000000000     0          
O        O      0.600000000000     0.482100000000     0.125000000000     0          
O        O      0.600000000000     0.949100000000     0.223400000000     0          
O        O      0.750020000000     0.911000000000     0.266800000000     0          
O        O      0.600000000000     0.974600000000     0.281150000000     0          
O        O      0.750000000000     0.794500000000     0.232550000000     0          
O        O      0.700000000000     0.769700000000     0.281500000000     0          
O        O      0.700000000000     0.844700000000     0.266800000000     0          
O        O      0.600000000000     0.579400000000     0.338850000000     0          
O        O      0.750020000000     0.644300000000     0.329050000000     0          
O        O      0.600000000000     0.610800000000     0.283150000000     0          
O        O      0.700000000000     0.709400000000     0.319750000000     0          
O        O      0.750020000000     0.983500000000     0.072050000000     0          
O        O      0.700000000000     0.677800000000     0.375000000000     0          
O        O      0.600000000000     0.517900000000     0.375000000000     0          
O        O      0.600000000000     0.949100000000     0.026600000000     0          
O        O      0.649980000000     0.911000000000     0.483200000000     0          
O        O      0.600000000000     0.974600000000     0.468850000000     0          
O        O      0.650000000000     0.794500000000     0.017450000000     0          
O        O      0.700000000000     0.769700000000     0.468500000000     0          
O        O      0.700000000000     0.844700000000     0.483200000000     0          
O        O      0.600000000000     0.579400000000     0.411150000000     0          
O        O      0.649980000000     0.644300000000     0.420950000000     0          
O        O      0.600000000000     0.610800000000     0.466850000000     0          
O        O      0.700000000000     0.709400000000     0.430250000000     0          
O        O      0.649980000000     0.983500000000     0.177950000000     0          
O        O      0.600000000000     0.050900000000     0.276600000000     0          
O        O      0.750020000000     0.089000000000     0.233200000000     0          
O        O      0.600000000000     0.025400000000     0.218850000000     0          
O        O      0.750000000000     0.205500000000     0.267450000000     0          
O        O      0.700000000000     0.230300000000     0.218500000000     0          
O        O      0.700000000000     0.155300000000     0.233200000000     0          
O        O      0.600000000000     0.420600000000     0.161150000000     0          
O        O      0.750020000000     0.355700000000     0.170950000000     0          
O        O      0.600000000000     0.389200000000     0.216850000000     0          
O        O      0.700000000000     0.290600000000     0.180250000000     0          
O        O      0.750020000000     0.016500000000     0.427950000000     0          
O        O      0.750020000000     0.911000000000     0.483200000000     0          
O        O      0.750000000000     0.794500000000     0.017450000000     0          
O        O      0.750020000000     0.644300000000     0.420950000000     0          
O        O      0.750020000000     0.983500000000     0.177950000000     0          
O        O      0.649980000000     0.089000000000     0.233200000000     0          
O        O      0.650000000000     0.205500000000     0.267450000000     0          
O        O      0.649980000000     0.355700000000     0.170950000000     0          
O        O      0.649980000000     0.016500000000     0.427950000000     0          
O        O      0.750020000000     0.089000000000     0.016800000000     0          
O        O      0.750000000000     0.205500000000     0.482550000000     0          
O        O      0.750020000000     0.355700000000     0.079050000000     0          
O        O      0.750020000000     0.016500000000     0.322050000000     0          
O        O      0.649980000000     0.911000000000     0.266800000000     0          
O        O      0.650000000000     0.794500000000     0.232550000000     0          
O        O      0.649980000000     0.644300000000     0.329050000000     0          
O        O      0.649980000000     0.983500000000     0.072050000000     0          
O        O      0.700000000000     0.550900000000     0.473400000000     0          
O        O      0.749980000000     0.589000000000     0.016800000000     0          
O        O      0.700000000000     0.525400000000     0.031150000000     0          
O        O      0.750000000000     0.705500000000     0.482550000000     0          
O        O      0.600000000000     0.730300000000     0.031500000000     0          
O        O      0.600000000000     0.655300000000     0.016800000000     0          
O        O      0.700000000000     0.920600000000     0.088850000000     0          
O        O      0.749980000000     0.855700000000     0.079050000000     0          
O        O      0.700000000000     0.889200000000     0.033150000000     0          
O        O      0.600000000000     0.790600000000     0.069750000000     0          
O        O      0.749980000000     0.516500000000     0.322050000000     0          
O        O      0.600000000000     0.822200000000     0.125000000000     0          
O        O      0.700000000000     0.982100000000     0.125000000000     0          
O        O      0.700000000000     0.449100000000     0.223400000000     0          
O        O      0.650020000000     0.411000000000     0.266800000000     0          
O        O      0.700000000000     0.474600000000     0.281150000000     0          
O        O      0.650000000000     0.294500000000     0.232550000000     0          
O        O      0.600000000000     0.269700000000     0.281500000000     0          
O        O      0.600000000000     0.344700000000     0.266800000000     0          
O        O      0.700000000000     0.079400000000     0.338850000000     0          
O        O      0.650020000000     0.144300000000     0.329050000000     0          
O        O      0.700000000000     0.110800000000     0.283150000000     0          
O        O      0.600000000000     0.209400000000     0.319750000000     0          
O        O      0.650020000000     0.483500000000     0.072050000000     0          
O        O      0.600000000000     0.177800000000     0.375000000000     0          
O        O      0.700000000000     0.017900000000     0.375000000000     0          
O        O      0.700000000000     0.449100000000     0.026600000000     0          
O        O      0.749980000000     0.411000000000     0.483200000000     0          
O        O      0.700000000000     0.474600000000     0.468850000000     0          
O        O      0.750000000000     0.294500000000     0.017450000000     0          
O        O      0.600000000000     0.269700000000     0.468500000000     0          
O        O      0.600000000000     0.344700000000     0.483200000000     0          
O        O      0.700000000000     0.079400000000     0.411150000000     0          
O        O      0.749980000000     0.144300000000     0.420950000000     0          
O        O      0.700000000000     0.110800000000     0.466850000000     0          
O        O      0.600000000000     0.209400000000     0.430250000000     0          
O        O      0.749980000000     0.483500000000     0.177950000000     0          
O        O      0.700000000000     0.550900000000     0.276600000000     0          
O        O      0.650020000000     0.589000000000     0.233200000000     0          
O        O      0.700000000000     0.525400000000     0.218850000000     0          
O        O      0.650000000000     0.705500000000     0.267450000000     0          
O        O      0.600000000000     0.730300000000     0.218500000000     0          
O        O      0.600000000000     0.655300000000     0.233200000000     0          
O        O      0.700000000000     0.920600000000     0.161150000000     0          
O        O      0.650020000000     0.855700000000     0.170950000000     0          
O        O      0.700000000000     0.889200000000     0.216850000000     0          
O        O      0.600000000000     0.790600000000     0.180250000000     0          
O        O      0.650020000000     0.516500000000     0.427950000000     0          
O        O      0.650020000000     0.411000000000     0.483200000000     0          
O        O      0.650000000000     0.294500000000     0.017450000000     0          
O        O      0.650020000000     0.144300000000     0.420950000000     0          
O        O      0.650020000000     0.483500000000     0.177950000000     0          
O        O      0.749980000000     0.589000000000     0.233200000000     0          
O        O      0.750000000000     0.705500000000     0.267450000000     0          
O        O      0.749980000000     0.855700000000     0.170950000000     0          
O        O      0.749980000000     0.516500000000     0.427950000000     0          
O        O      0.650020000000     0.589000000000     0.016800000000     0          
O        O      0.650000000000     0.705500000000     0.482550000000     0          
O        O      0.650020000000     0.855700000000     0.079050000000     0          
O        O      0.650020000000     0.516500000000     0.322050000000     0          
O        O      0.749980000000     0.411000000000     0.266800000000     0          
O        O      0.750000000000     0.294500000000     0.232550000000     0          
O        O      0.749980000000     0.144300000000     0.329050000000     0          
O        O      0.749980000000     0.483500000000     0.072050000000     0          
O        O      0.600000000000     0.050900000000     0.973400000000     0          
O        O      0.649980000000     0.089000000000     0.516800000000     0          
O        O      0.600000000000     0.025400000000     0.531150000000     0          
O        O      0.650000000000     0.205500000000     0.982550000000     0          
O        O      0.700000000000     0.230300000000     0.531500000000     0          
O        O      0.700000000000     0.155300000000     0.516800000000     0          
O        O      0.600000000000     0.420600000000     0.588850000000     0          
O        O      0.649980000000     0.355700000000     0.579050000000     0          
O        O      0.600000000000     0.389200000000     0.533150000000     0          
O        O      0.700000000000     0.290600000000     0.569750000000     0          
O        O      0.649980000000     0.016500000000     0.822050000000     0          
O        O      0.700000000000     0.322200000000     0.625000000000     0          
O        O      0.600000000000     0.482100000000     0.625000000000     0          
O        O      0.600000000000     0.949100000000     0.723400000000     0          
O        O      0.750020000000     0.911000000000     0.766800000000     0          
O        O      0.600000000000     0.974600000000     0.781150000000     0          
O        O      0.750000000000     0.794500000000     0.732550000000     0          
O        O      0.700000000000     0.769700000000     0.781500000000     0          
O        O      0.700000000000     0.844700000000     0.766800000000     0          
O        O      0.600000000000     0.579400000000     0.838850000000     0          
O        O      0.750020000000     0.644300000000     0.829050000000     0          
O        O      0.600000000000     0.610800000000     0.783150000000     0          
O        O      0.700000000000     0.709400000000     0.819750000000     0          
O        O      0.750020000000     0.983500000000     0.572050000000     0          
O        O      0.700000000000     0.677800000000     0.875000000000     0          
O        O      0.600000000000     0.517900000000     0.875000000000     0          
O        O      0.600000000000     0.949100000000     0.526600000000     0          
O        O      0.649980000000     0.911000000000     0.983200000000     0          
O        O      0.600000000000     0.974600000000     0.968850000000     0          
O        O      0.650000000000     0.794500000000     0.517450000000     0          
O        O      0.700000000000     0.769700000000     0.968500000000     0          
O        O      0.700000000000     0.844700000000     0.983200000000     0          
O        O      0.600000000000     0.579400000000     0.911150000000     0          
O        O      0.649980000000     0.644300000000     0.920950000000     0          
O        O      0.600000000000     0.610800000000     0.966850000000     0          
O        O      0.700000000000     0.709400000000     0.930250000000     0          
O        O      0.649980000000     0.983500000000     0.677950000000     0          
O        O      0.600000000000     0.050900000000     0.776600000000     0          
O        O      0.750020000000     0.089000000000     0.733200000000     0          
O        O      0.600000000000     0.025400000000     0.718850000000     0          
O        O      0.750000000000     0.205500000000     0.767450000000     0          
O        O      0.700000000000     0.230300000000     0.718500000000     0          
O        O      0.700000000000     0.155300000000     0.733200000000     0          
O        O      0.600000000000     0.420600000000     0.661150000000     0          
O        O      0.750020000000     0.355700000000     0.670950000000     0          
O        O      0.600000000000     0.389200000000     0.716850000000     0          
O        O      0.700000000000     0.290600000000     0.680250000000     0          
O        O      0.750020000000     0.016500000000     0.927950000000     0          
O        O      0.750020000000     0.911000000000     0.983200000000     0          
O        O      0.750000000000     0.794500000000     0.517450000000     0          
O        O      0.750020000000     0.644300000000     0.920950000000     0          
O        O      0.750020000000     0.983500000000     0.677950000000     0          
O        O      0.649980000000     0.089000000000     0.733200000000     0          
O        O      0.650000000000     0.205500000000     0.767450000000     0          
O        O      0.649980000000     0.355700000000     0.670950000000     0          
O        O      0.649980000000     0.016500000000     0.927950000000     0          
O        O      0.750020000000     0.089000000000     0.516800000000     0          
O        O      0.750000000000     0.205500000000     0.982550000000     0          
O        O      0.750020000000     0.355700000000     0.579050000000     0          
O        O      0.750020000000     0.016500000000     0.822050000000     0          
O        O      0.649980000000     0.911000000000     0.766800000000     0          
O        O      0.650000000000     0.794500000000     0.732550000000     0          
O        O      0.649980000000     0.644300000000     0.829050000000     0          
O        O      0.649980000000     0.983500000000     0.572050000000     0          
O        O      0.700000000000     0.550900000000     0.973400000000     0          
O        O      0.749980000000     0.589000000000     0.516800000000     0          
O        O      0.700000000000     0.525400000000     0.531150000000     0          
O        O      0.750000000000     0.705500000000     0.982550000000     0          
O        O      0.600000000000     0.730300000000     0.531500000000     0          
O        O      0.600000000000     0.655300000000     0.516800000000     0          
O        O      0.700000000000     0.920600000000     0.588850000000     0          
O        O      0.749980000000     0.855700000000     0.579050000000     0          
O        O      0.700000000000     0.889200000000     0.533150000000     0          
O        O      0.600000000000     0.790600000000     0.569750000000     0          
O        O      0.749980000000     0.516500000000     0.822050000000     0          
O        O      0.600000000000     0.822200000000     0.625000000000     0          
O        O      0.700000000000     0.982100000000     0.625000000000     0          
O        O      0.700000000000     0.449100000000     0.723400000000     0          
O        O      0.650020000000     0.411000000000     0.766800000000     0          
O        O      0.700000000000     0.474600000000     0.781150000000     0          
O        O      0.650000000000     0.294500000000     0.732550000000     0          
O        O      0.600000000000     0.269700000000     0.781500000000     0          
O        O      0.600000000000     0.344700000000     0.766800000000     0          
O        O      0.700000000000     0.079400000000     0.838850000000     0          
O        O      0.650020000000     0.144300000000     0.829050000000     0          
O        O      0.700000000000     0.110800000000     0.783150000000     0          
O        O      0.600000000000     0.209400000000     0.819750000000     0          
O        O      0.650020000000     0.483500000000     0.572050000000     0          
O        O      0.600000000000     0.177800000000     0.875000000000     0          
O        O      0.700000000000     0.017900000000     0.875000000000     0          
O        O      0.700000000000     0.449100000000     0.526600000000     0          
O        O      0.749980000000     0.411000000000     0.983200000000     0          
O        O      0.700000000000     0.474600000000     0.968850000000     0          
O        O      0.750000000000     0.294500000000     0.517450000000     0          
O        O      0.600000000000     0.269700000000     0.968500000000     0          
O        O      0.600000000000     0.344700000000     0.983200000000     0          
O        O      0.700000000000     0.079400000000     0.911150000000     0          
O        O      0.749980000000     0.144300000000     0.920950000000     0          
O        O      0.700000000000     0.110800000000     0.966850000000     0          
O        O      0.600000000000     0.209400000000     0.930250000000     0          
O        O      0.749980000000     0.483500000000     0.677950000000     0          
O        O      0.700000000000     0.550900000000     0.776600000000     0          
O        O      0.650020000000     0.589000000000     0.733200000000     0          
O        O      0.700000000000     0.525400000000     0.718850000000     0          
O        O      0.650000000000     0.705500000000     0.767450000000     0          
O        O      0.600000000000     0.730300000000     0.718500000000     0          
O        O      0.600000000000     0.655300000000     0.733200000000     0          
O        O      0.700000000000     0.920600000000     0.661150000000     0          
O        O      0.650020000000     0.855700000000     0.670950000000     0          
O        O      0.700000000000     0.889200000000     0.716850000000     0          
O        O      0.600000000000     0.790600000000     0.680250000000     0          
O        O      0.650020000000     0.516500000000     0.927950000000     0          
O        O      0.650020000000     0.411000000000     0.983200000000     0          
O        O      0.650000000000     0.294500000000     0.517450000000     0          
O        O      0.650020000000     0.144300000000     0.920950000000     0          
O        O      0.650020000000     0.483500000000     0.677950000000     0          
O        O      0.749980000000     0.589000000000     0.733200000000     0          
O        O      0.750000000000     0.705500000000     0.767450000000     0          
O        O      0.749980000000     0.855700000000     0.670950000000     0          
O        O      0.749980000000     0.516500000000     0.927950000000     0          
O        O      0.650020000000     0.589000000000     0.516800000000     0          
O        O      0.650000000000     0.705500000000     0.982550000000     0          
O        O      0.650020000000     0.855700000000     0.579050000000     0          
O        O      0.650020000000     0.516500000000     0.822050000000     0          
O        O      0.749980000000     0.411000000000     0.766800000000     0          
O        O      0.750000000000     0.294500000000     0.732550000000     0          
O        O      0.749980000000     0.144300000000     0.829050000000     0          
O        O      0.749980000000     0.483500000000     0.572050000000     0          
O        O      0.800000000000     0.050900000000     0.473400000000     0          
O        O      0.849980000000     0.089000000000     0.016800000000     0          
O        O      0.800000000000     0.025400000000     0.031150000000     0          
O        O      0.850000000000     0.205500000000     0.482550000000     0          
O        O      0.900000000000     0.230300000000     0.031500000000     0          
O        O      0.900000000000     0.155300000000     0.016800000000     0          
O        O      0.800000000000     0.420600000000     0.088850000000     0          
O        O      0.849980000000     0.355700000000     0.079050000000     0          
O        O      0.800000000000     0.389200000000     0.033150000000     0          
O        O      0.900000000000     0.290600000000     0.069750000000     0          
O        O      0.849980000000     0.016500000000     0.322050000000     0          
O        O      0.900000000000     0.322200000000     0.125000000000     0          
O        O      0.800000000000     0.482100000000     0.125000000000     0          
O        O      0.800000000000     0.949100000000     0.223400000000     0          
O        O      0.950020000000     0.911000000000     0.266800000000     0          
O        O      0.800000000000     0.974600000000     0.281150000000     0          
O        O      0.950000000000     0.794500000000     0.232550000000     0          
O        O      0.900000000000     0.769700000000     0.281500000000     0          
O        O      0.900000000000     0.844700000000     0.266800000000     0          
O        O      0.800000000000     0.579400000000     0.338850000000     0          
O        O      0.950020000000     0.644300000000     0.329050000000     0          
O        O      0.800000000000     0.610800000000     0.283150000000     0          
O        O      0.900000000000     0.709400000000     0.319750000000     0          
O        O      0.950020000000     0.983500000000     0.072050000000     0          
O        O      0.900000000000     0.677800000000     0.375000000000     0          
O        O      0.800000000000     0.517900000000     0.375000000000     0          
O        O      0.800000000000     0.949100000000     0.026600000000     0          
O        O      0.849980000000     0.911000000000     0.483200000000     0          
O        O      0.800000000000     0.974600000000     0.468850000000     0          
O        O      0.850000000000     0.794500000000     0.017450000000     0          
O        O      0.900000000000     0.769700000000     0.468500000000     0          
O        O      0.900000000000     0.844700000000     0.483200000000     0          
O        O      0.800000000000     0.579400000000     0.411150000000     0          
O        O      0.849980000000     0.644300000000     0.420950000000     0          
O        O      0.800000000000     0.610800000000     0.466850000000     0          
O        O      0.900000000000     0.709400000000     0.430250000000     0          
O        O      0.849980000000     0.983500000000     0.177950000000     0          
O        O      0.800000000000     0.050900000000     0.276600000000     0          
O        O      0.950020000000     0.089000000000     0.233200000000     0          
O        O      0.800000000000     0.025400000000     0.218850000000     0          
O        O      0.950000000000     0.205500000000     0.267450000000     0          
O        O      0.900000000000     0.230300000000     0.218500000000     0          
O        O      0.900000000000     0.155300000000     0.233200000000     0          
O        O      0.800000000000     0.420600000000     0.161150000000     0          
O        O      0.950020000000     0.355700000000     0.170950000000     0          
O        O      0.800000000000     0.389200000000     0.216850000000     0          
O        O      0.900000000000     0.290600000000     0.180250000000     0          
O        O      0.950020000000     0.016500000000     0.427950000000     0          
O        O      0.950020000000     0.911000000000     0.483200000000     0          
O        O      0.950000000000     0.794500000000     0.017450000000     0          
O        O      0.950020000000     0.644300000000     0.420950000000     0          
O        O      0.950020000000     0.983500000000     0.177950000000     0          
O        O      0.849980000000     0.089000000000     0.233200000000     0          
O        O      0.850000000000     0.205500000000     0.267450000000     0          
O        O      0.849980000000     0.355700000000     0.170950000000     0          
O        O      0.849980000000     0.016500000000     0.427950000000     0          
O        O      0.950020000000     0.089000000000     0.016800000000     0          
O        O      0.950000000000     0.205500000000     0.482550000000     0          
O        O      0.950020000000     0.355700000000     0.079050000000     0          
O        O      0.950020000000     0.016500000000     0.322050000000     0          
O        O      0.849980000000     0.911000000000     0.266800000000     0          
O        O      0.850000000000     0.794500000000     0.232550000000     0          
O        O      0.849980000000     0.644300000000     0.329050000000     0          
O        O      0.849980000000     0.983500000000     0.072050000000     0          
O        O      0.900000000000     0.550900000000     0.473400000000     0          
O        O      0.949980000000     0.589000000000     0.016800000000     0          
O        O      0.900000000000     0.525400000000     0.031150000000     0          
O        O      0.950000000000     0.705500000000     0.482550000000     0          
O        O      0.800000000000     0.730300000000     0.031500000000     0          
O        O      0.800000000000     0.655300000000     0.016800000000     0          
O        O      0.900000000000     0.920600000000     0.088850000000     0          
O        O      0.949980000000     0.855700000000     0.079050000000     0          
O        O      0.900000000000     0.889200000000     0.033150000000     0          
O        O      0.800000000000     0.790600000000     0.069750000000     0          
O        O      0.949980000000     0.516500000000     0.322050000000     0          
O        O      0.800000000000     0.822200000000     0.125000000000     0          
O        O      0.900000000000     0.982100000000     0.125000000000     0          
O        O      0.900000000000     0.449100000000     0.223400000000     0          
O        O      0.850020000000     0.411000000000     0.266800000000     0          
O        O      0.900000000000     0.474600000000     0.281150000000     0          
O        O      0.850000000000     0.294500000000     0.232550000000     0          
O        O      0.800000000000     0.269700000000     0.281500000000     0          
O        O      0.800000000000     0.344700000000     0.266800000000     0          
O        O      0.900000000000     0.079400000000     0.338850000000     0          
O        O      0.850020000000     0.144300000000     0.329050000000     0          
O        O      0.900000000000     0.110800000000     0.283150000000     0          
O        O      0.800000000000     0.209400000000     0.319750000000     0          
O        O      0.850020000000     0.483500000000     0.072050000000     0          
O        O      0.800000000000     0.177800000000     0.375000000000     0          
O        O      0.900000000000     0.017900000000     0.375000000000     0          
O        O      0.900000000000     0.449100000000     0.026600000000     0          
O        O      0.949980000000     0.411000000000     0.483200000000     0          
O        O      0.900000000000     0.474600000000     0.468850000000     0          
O        O      0.950000000000     0.294500000000     0.017450000000     0          
O        O      0.800000000000     0.269700000000     0.468500000000     0          
O        O      0.800000000000     0.344700000000     0.483200000000     0          
O        O      0.900000000000     0.079400000000     0.411150000000     0          
O        O      0.949980000000     0.144300000000     0.420950000000     0          
O        O      0.900000000000     0.110800000000     0.466850000000     0          
O        O      0.800000000000     0.209400000000     0.430250000000     0          
O        O      0.949980000000     0.483500000000     0.177950000000     0          
O        O      0.900000000000     0.550900000000     0.276600000000     0          
O        O      0.850020000000     0.589000000000     0.233200000000     0          
O        O      0.900000000000     0.525400000000     0.218850000000     0          
O        O      0.850000000000     0.705500000000     0.267450000000     0          
O        O      0.800000000000     0.730300000000     0.218500000000     0          
O        O      0.800000000000     0.655300000000     0.233200000000     0          
O        O      0.900000000000     0.920600000000     0.161150000000     0          
O        O      0.850020000000     0.855700000000     0.170950000000     0          
O        O      0.900000000000     0.889200000000     0.216850000000     0          
O        O      0.800000000000     0.790600000000     0.180250000000     0          
O        O      0.850020000000     0.516500000000     0.427950000000     0          
O        O      0.850020000000     0.411000000000     0.483200000000     0          
O        O      0.850000000000     0.294500000000     0.017450000000     0          
O        O      0.850020000000     0.144300000000     0.420950000000     0          
O        O      0.850020000000     0.483500000000     0.177950000000     0          
O        O      0.949980000000     0.589000000000     0.233200000000     0          
O        O      0.950000000000     0.705500000000     0.267450000000     0          
O        O      0.949980000000     0.855700000000     0.170950000000     0          
O        O      0.949980000000     0.516500000000     0.427950000000     0          
O        O      0.850020000000     0.589000000000     0.016800000000     0          
O        O      0.850000000000     0.705500000000     0.482550000000     0          
O        O      0.850020000000     0.855700000000     0.079050000000     0          
O        O      0.850020000000     0.516500000000     0.322050000000     0          
O        O      0.949980000000     0.411000000000     0.266800000000     0          
O        O      0.950000000000     0.294500000000     0.232550000000     0          
O        O      0.949980000000     0.144300000000     0.329050000000     0          
O        O      0.949980000000     0.483500000000     0.072050000000     0          
O        O      0.800000000000     0.050900000000     0.973400000000     0          
O        O      0.849980000000     0.089000000000     0.516800000000     0          
O        O      0.800000000000     0.025400000000     0.531150000000     0          
O        O      0.850000000000     0.205500000000     0.982550000000     0          
O        O      0.900000000000     0.230300000000     0.531500000000     0          
O        O      0.900000000000     0.155300000000     0.516800000000     0          
O        O      0.800000000000     0.420600000000     0.588850000000     0          
O        O      0.849980000000     0.355700000000     0.579050000000     0          
O        O      0.800000000000     0.389200000000     0.533150000000     0          
O        O      0.900000000000     0.290600000000     0.569750000000     0          
O        O      0.849980000000     0.016500000000     0.822050000000     0          
O        O      0.900000000000     0.322200000000     0.625000000000     0          
O        O      0.800000000000     0.482100000000     0.625000000000     0          
O        O      0.800000000000     0.949100000000     0.723400000000     0          
O        O      0.950020000000     0.911000000000     0.766800000000     0          
O        O      0.800000000000     0.974600000000     0.781150000000     0          
O        O      0.950000000000     0.794500000000     0.732550000000     0          
O        O      0.900000000000     0.769700000000     0.781500000000     0          
O        O      0.900000000000     0.844700000000     0.766800000000     0          
O        O      0.800000000000     0.579400000000     0.838850000000     0          
O        O      0.950020000000     0.644300000000     0.829050000000     0          
O        O      0.800000000000     0.610800000000     0.783150000000     0          
O        O      0.900000000000     0.709400000000     0.819750000000     0          
O        O      0.950020000000     0.983500000000     0.572050000000     0          
O        O      0.900000000000     0.677800000000     0.875000000000     0          
O        O      0.800000000000     0.517900000000     0.875000000000     0          
O        O      0.800000000000     0.949100000000     0.526600000000     0          
O        O      0.849980000000     0.911000000000     0.983200000000     0          
O        O      0.800000000000     0.974600000000     0.968850000000     0          
O        O      0.850000000000     0.794500000000     0.517450000000     0          
O        O      0.900000000000     0.769700000000     0.968500000000     0          
O        O      0.900000000000     0.844700000000     0.983200000000     0          
O        O      0.800000000000     0.579400000000     0.911150000000     0          
O        O      0.849980000000     0.644300000000     0.920950000000     0          
O        O      0.800000000000     0.610800000000     0.966850000000     0          
O        O      0.900000000000     0.709400000000     0.930250000000     0          
O        O      0.849980000000     0.983500000000     0.677950000000     0          
O        O      0.800000000000     0.050900000000     0.776600000000     0          
O        O      0.950020000000     0.089000000000     0.733200000000     0          
O        O      0.800000000000     0.025400000000     0.718850000000     0          
O        O      0.950000000000     0.205500000000     0.767450000000     0          
O        O      0.900000000000     0.230300000000     0.718500000000     0          
O        O      0.900000000000     0.155300000000     0.733200000000     0          
O        O      0.800000000000     0.420600000000     0.661150000000     0          
O        O      0.950020000000     0.355700000000     0.670950000000     0          
O        O      0.800000000000     0.389200000000     0.716850000000     0          
O        O      0.900000000000     0.290600000000     0.680250000000     0          
O        O      0.950020000000     0.016500000000     0.927950000000     0          
O        O      0.950020000000     0.911000000000     0.983200000000     0          
O        O      0.950000000000     0.794500000000     0.517450000000     0          
O        O      0.950020000000     0.644300000000     0.920950000000     0          
O        O      0.950020000000     0.983500000000     0.677950000000     0          
O        O      0.849980000000     0.089000000000     0.733200000000     0          
O        O      0.850000000000     0.205500000000     0.767450000000     0          
O        O      0.849980000000     0.355700000000     0.670950000000     0          
O        O      0.849980000000     0.016500000000     0.927950000000     0          
O        O      0.950020000000     0.089000000000     0.516800000000     0          
O        O      0.950000000000     0.205500000000     0.982550000000     0          
O        O      0.950020000000     0.355700000000     0.579050000000     0          
O        O      0.950020000000     0.016500000000     0.822050000000     0          
O        O      0.849980000000     0.911000000000     0.766800000000     0          
O        O      0.850000000000     0.794500000000     0.732550000000     0          
O        O      0.849980000000     0.644300000000     0.829050000000     0          
O        O      0.849980000000     0.983500000000     0.572050000000     0          
O        O      0.900000000000     0.550900000000     0.973400000000     0          
O        O      0.949980000000     0.589000000000     0.516800000000     0          
O        O      0.900000000000     0.525400000000     0.531150000000     0          
O        O      0.950000000000     0.705500000000     0.982550000000     0          
O        O      0.800000000000     0.730300000000     0.531500000000     0          
O        O      0.800000000000     0.655300000000     0.516800000000     0          
O        O      0.900000000000     0.920600000000     0.588850000000     0          
O        O      0.949980000000     0.855700000000     0.579050000000     0          
O        O      0.900000000000     0.889200000000     0.533150000000     0          
O        O      0.800000000000     0.790600000000     0.569750000000     0          
O        O      0.949980000000     0.516500000000     0.822050000000     0          
O        O      0.800000000000     0.822200000000     0.625000000000     0          
O        O      0.900000000000     0.982100000000     0.625000000000     0          
O        O      0.900000000000     0.449100000000     0.723400000000     0          
O        O      0.850020000000     0.411000000000     0.766800000000     0          
O        O      0.900000000000     0.474600000000     0.781150000000     0          
O        O      0.850000000000     0.294500000000     0.732550000000     0          
O        O      0.800000000000     0.269700000000     0.781500000000     0          
O        O      0.800000000000     0.344700000000     0.766800000000     0          
O        O      0.900000000000     0.079400000000     0.838850000000     0          
O        O      0.850020000000     0.144300000000     0.829050000000     0          
O        O      0.900000000000     0.110800000000     0.783150000000     0          
O        O      0.800000000000     0.209400000000     0.819750000000     0          
O        O      0.850020000000     0.483500000000     0.572050000000     0          
O        O      0.800000000000     0.177800000000     0.875000000000     0          
O        O      0.900000000000     0.017900000000     0.875000000000     0          
O        O      0.900000000000     0.449100000000     0.526600000000     0          
O        O      0.949980000000     0.411000000000     0.983200000000     0          
O        O      0.900000000000     0.474600000000     0.968850000000     0          
O        O      0.950000000000     0.294500000000     0.517450000000     0          
O        O      0.800000000000     0.269700000000     0.968500000000     0          
O        O      0.800000000000     0.344700000000     0.983200000000     0          
O        O      0.900000000000     0.079400000000     0.911150000000     0          
O        O      0.949980000000     0.144300000000     0.920950000000     0          
O        O      0.900000000000     0.110800000000     0.966850000000     0          
O        O      0.800000000000     0.209400000000     0.930250000000     0          
O        O      0.949980000000     0.483500000000     0.677950000000     0          
O        O      0.900000000000     0.550900000000     0.776600000000     0          
O        O      0.850020000000     0.589000000000     0.733200000000     0          
O        O      0.900000000000     0.525400000000     0.718850000000     0          
O        O      0.850000000000     0.705500000000     0.767450000000     0          
O        O      0.800000000000     0.730300000000     0.718500000000     0          
O        O      0.800000000000     0.655300000000     0.733200000000     0          
O        O      0.900000000000     0.920600000000     0.661150000000     0          
O        O      0.850020000000     0.855700000000     0.670950000000     0          
O        O      0.900000000000     0.889200000000     0.716850000000     0          
O        O      0.800000000000     0.790600000000     0.680250000000     0          
O        O      0.850020000000     0.516500000000     0.927950000000     0          
O        O      0.850020000000     0.411000000000     0.983200000000     0          
O        O      0.850000000000     0.294500000000     0.517450000000     0          
O        O      0.850020000000     0.144300000000     0.920950000000     0          
O        O      0.850020000000     0.483500000000     0.677950000000     0          
O        O      0.949980000000     0.589000000000     0.733200000000     0          
O        O      0.950000000000     0.705500000000     0.767450000000     0          
O        O      0.949980000000     0.855700000000     0.670950000000     0          
O        O      0.949980000000     0.516500000000     0.927950000000     0          
O        O      0.850020000000     0.589000000000     0.516800000000     0          
O        O      0.850000000000     0.705500000000     0.982550000000     0          
O        O      0.850020000000     0.855700000000     0.579050000000     0          
O        O      0.850020000000     0.516500000000     0.822050000000     0          
O        O      0.949980000000     0.411000000000     0.766800000000     0          
O        O      0.950000000000     0.294500000000     0.732550000000     0          
O        O      0.949980000000     0.144300000000     0.829050000000     0          
O        O      0.949980000000     0.483500000000     0.572050000000     0          


