data_zeolite

_audit_creation_method RASPA-1.0
_audit_creation_date 2021-6-6
_audit_author_name ''

_cell_length_a    22.305
_cell_length_b    13.567
_cell_length_c    6.972
_cell_angle_alpha 90
_cell_angle_beta  90
_cell_angle_gamma 90
_cell_volume      33757

_symmetry_cell_setting          orthorhombic
_symmetry_space_group_name_Hall 'P 1'
_symmetry_space_group_name_H-M  'P 1'
_symmetry_Int_Tables_number     1

_symmetry_equiv_pos_as_xyz 'x,y,z'

loop_
_atom_site_label
_atom_site_type_symbol
_atom_site_fract_x
_atom_site_fract_y
_atom_site_fract_z
_atom_site_charge
T        Si     0.044350000000     0.068800000000     0.110200000000     0          
T        Si     0.090450000000     0.068200000000     0.027450000000     0          
T        Si     0.496400000000     0.068550000000     0.030400000000     0          
T        Si     0.042200000000     0.023550000000     0.212525000000     0          
T        Si     0.205650000000     0.181200000000     0.110200000000     0          
T        Si     0.159550000000     0.181800000000     0.027450000000     0          
T        Si     0.253600000000     0.181450000000     0.030400000000     0          
T        Si     0.207800000000     0.226450000000     0.212525000000     0          
T        Si     0.294350000000     0.431200000000     0.139800000000     0          
T        Si     0.340450000000     0.431800000000     0.222550000000     0          
T        Si     0.246400000000     0.431450000000     0.219600000000     0          
T        Si     0.292200000000     0.476450000000     0.037475000000     0          
T        Si     0.455650000000     0.318800000000     0.139800000000     0          
T        Si     0.409550000000     0.318200000000     0.222550000000     0          
T        Si     0.003600000000     0.318550000000     0.219600000000     0          
T        Si     0.457800000000     0.273550000000     0.037475000000     0          
T        Si     0.455650000000     0.431200000000     0.139800000000     0          
T        Si     0.409550000000     0.431800000000     0.222550000000     0          
T        Si     0.003600000000     0.431450000000     0.219600000000     0          
T        Si     0.457800000000     0.476450000000     0.037475000000     0          
T        Si     0.294350000000     0.318800000000     0.139800000000     0          
T        Si     0.340450000000     0.318200000000     0.222550000000     0          
T        Si     0.246400000000     0.318550000000     0.219600000000     0          
T        Si     0.292200000000     0.273550000000     0.037475000000     0          
T        Si     0.205650000000     0.068800000000     0.110200000000     0          
T        Si     0.159550000000     0.068200000000     0.027450000000     0          
T        Si     0.253600000000     0.068550000000     0.030400000000     0          
T        Si     0.207800000000     0.023550000000     0.212525000000     0          
T        Si     0.044350000000     0.181200000000     0.110200000000     0          
T        Si     0.090450000000     0.181800000000     0.027450000000     0          
T        Si     0.496400000000     0.181450000000     0.030400000000     0          
T        Si     0.042200000000     0.226450000000     0.212525000000     0          
T        Si     0.044350000000     0.068800000000     0.360200000000     0          
T        Si     0.090450000000     0.068200000000     0.277450000000     0          
T        Si     0.496400000000     0.068550000000     0.280400000000     0          
T        Si     0.042200000000     0.023550000000     0.462525000000     0          
T        Si     0.205650000000     0.181200000000     0.360200000000     0          
T        Si     0.159550000000     0.181800000000     0.277450000000     0          
T        Si     0.253600000000     0.181450000000     0.280400000000     0          
T        Si     0.207800000000     0.226450000000     0.462525000000     0          
T        Si     0.294350000000     0.431200000000     0.389800000000     0          
T        Si     0.340450000000     0.431800000000     0.472550000000     0          
T        Si     0.246400000000     0.431450000000     0.469600000000     0          
T        Si     0.292200000000     0.476450000000     0.287475000000     0          
T        Si     0.455650000000     0.318800000000     0.389800000000     0          
T        Si     0.409550000000     0.318200000000     0.472550000000     0          
T        Si     0.003600000000     0.318550000000     0.469600000000     0          
T        Si     0.457800000000     0.273550000000     0.287475000000     0          
T        Si     0.455650000000     0.431200000000     0.389800000000     0          
T        Si     0.409550000000     0.431800000000     0.472550000000     0          
T        Si     0.003600000000     0.431450000000     0.469600000000     0          
T        Si     0.457800000000     0.476450000000     0.287475000000     0          
T        Si     0.294350000000     0.318800000000     0.389800000000     0          
T        Si     0.340450000000     0.318200000000     0.472550000000     0          
T        Si     0.246400000000     0.318550000000     0.469600000000     0          
T        Si     0.292200000000     0.273550000000     0.287475000000     0          
T        Si     0.205650000000     0.068800000000     0.360200000000     0          
T        Si     0.159550000000     0.068200000000     0.277450000000     0          
T        Si     0.253600000000     0.068550000000     0.280400000000     0          
T        Si     0.207800000000     0.023550000000     0.462525000000     0          
T        Si     0.044350000000     0.181200000000     0.360200000000     0          
T        Si     0.090450000000     0.181800000000     0.277450000000     0          
T        Si     0.496400000000     0.181450000000     0.280400000000     0          
T        Si     0.042200000000     0.226450000000     0.462525000000     0          
T        Si     0.044350000000     0.068800000000     0.610200000000     0          
T        Si     0.090450000000     0.068200000000     0.527450000000     0          
T        Si     0.496400000000     0.068550000000     0.530400000000     0          
T        Si     0.042200000000     0.023550000000     0.712525000000     0          
T        Si     0.205650000000     0.181200000000     0.610200000000     0          
T        Si     0.159550000000     0.181800000000     0.527450000000     0          
T        Si     0.253600000000     0.181450000000     0.530400000000     0          
T        Si     0.207800000000     0.226450000000     0.712525000000     0          
T        Si     0.294350000000     0.431200000000     0.639800000000     0          
T        Si     0.340450000000     0.431800000000     0.722550000000     0          
T        Si     0.246400000000     0.431450000000     0.719600000000     0          
T        Si     0.292200000000     0.476450000000     0.537475000000     0          
T        Si     0.455650000000     0.318800000000     0.639800000000     0          
T        Si     0.409550000000     0.318200000000     0.722550000000     0          
T        Si     0.003600000000     0.318550000000     0.719600000000     0          
T        Si     0.457800000000     0.273550000000     0.537475000000     0          
T        Si     0.455650000000     0.431200000000     0.639800000000     0          
T        Si     0.409550000000     0.431800000000     0.722550000000     0          
T        Si     0.003600000000     0.431450000000     0.719600000000     0          
T        Si     0.457800000000     0.476450000000     0.537475000000     0          
T        Si     0.294350000000     0.318800000000     0.639800000000     0          
T        Si     0.340450000000     0.318200000000     0.722550000000     0          
T        Si     0.246400000000     0.318550000000     0.719600000000     0          
T        Si     0.292200000000     0.273550000000     0.537475000000     0          
T        Si     0.205650000000     0.068800000000     0.610200000000     0          
T        Si     0.159550000000     0.068200000000     0.527450000000     0          
T        Si     0.253600000000     0.068550000000     0.530400000000     0          
T        Si     0.207800000000     0.023550000000     0.712525000000     0          
T        Si     0.044350000000     0.181200000000     0.610200000000     0          
T        Si     0.090450000000     0.181800000000     0.527450000000     0          
T        Si     0.496400000000     0.181450000000     0.530400000000     0          
T        Si     0.042200000000     0.226450000000     0.712525000000     0          
T        Si     0.044350000000     0.068800000000     0.860200000000     0          
T        Si     0.090450000000     0.068200000000     0.777450000000     0          
T        Si     0.496400000000     0.068550000000     0.780400000000     0          
T        Si     0.042200000000     0.023550000000     0.962525000000     0          
T        Si     0.205650000000     0.181200000000     0.860200000000     0          
T        Si     0.159550000000     0.181800000000     0.777450000000     0          
T        Si     0.253600000000     0.181450000000     0.780400000000     0          
T        Si     0.207800000000     0.226450000000     0.962525000000     0          
T        Si     0.294350000000     0.431200000000     0.889800000000     0          
T        Si     0.340450000000     0.431800000000     0.972550000000     0          
T        Si     0.246400000000     0.431450000000     0.969600000000     0          
T        Si     0.292200000000     0.476450000000     0.787475000000     0          
T        Si     0.455650000000     0.318800000000     0.889800000000     0          
T        Si     0.409550000000     0.318200000000     0.972550000000     0          
T        Si     0.003600000000     0.318550000000     0.969600000000     0          
T        Si     0.457800000000     0.273550000000     0.787475000000     0          
T        Si     0.455650000000     0.431200000000     0.889800000000     0          
T        Si     0.409550000000     0.431800000000     0.972550000000     0          
T        Si     0.003600000000     0.431450000000     0.969600000000     0          
T        Si     0.457800000000     0.476450000000     0.787475000000     0          
T        Si     0.294350000000     0.318800000000     0.889800000000     0          
T        Si     0.340450000000     0.318200000000     0.972550000000     0          
T        Si     0.246400000000     0.318550000000     0.969600000000     0          
T        Si     0.292200000000     0.273550000000     0.787475000000     0          
T        Si     0.205650000000     0.068800000000     0.860200000000     0          
T        Si     0.159550000000     0.068200000000     0.777450000000     0          
T        Si     0.253600000000     0.068550000000     0.780400000000     0          
T        Si     0.207800000000     0.023550000000     0.962525000000     0          
T        Si     0.044350000000     0.181200000000     0.860200000000     0          
T        Si     0.090450000000     0.181800000000     0.777450000000     0          
T        Si     0.496400000000     0.181450000000     0.780400000000     0          
T        Si     0.042200000000     0.226450000000     0.962525000000     0          
T        Si     0.044350000000     0.568800000000     0.110200000000     0          
T        Si     0.090450000000     0.568200000000     0.027450000000     0          
T        Si     0.496400000000     0.568550000000     0.030400000000     0          
T        Si     0.042200000000     0.523550000000     0.212525000000     0          
T        Si     0.205650000000     0.681200000000     0.110200000000     0          
T        Si     0.159550000000     0.681800000000     0.027450000000     0          
T        Si     0.253600000000     0.681450000000     0.030400000000     0          
T        Si     0.207800000000     0.726450000000     0.212525000000     0          
T        Si     0.294350000000     0.931200000000     0.139800000000     0          
T        Si     0.340450000000     0.931800000000     0.222550000000     0          
T        Si     0.246400000000     0.931450000000     0.219600000000     0          
T        Si     0.292200000000     0.976450000000     0.037475000000     0          
T        Si     0.455650000000     0.818800000000     0.139800000000     0          
T        Si     0.409550000000     0.818200000000     0.222550000000     0          
T        Si     0.003600000000     0.818550000000     0.219600000000     0          
T        Si     0.457800000000     0.773550000000     0.037475000000     0          
T        Si     0.455650000000     0.931200000000     0.139800000000     0          
T        Si     0.409550000000     0.931800000000     0.222550000000     0          
T        Si     0.003600000000     0.931450000000     0.219600000000     0          
T        Si     0.457800000000     0.976450000000     0.037475000000     0          
T        Si     0.294350000000     0.818800000000     0.139800000000     0          
T        Si     0.340450000000     0.818200000000     0.222550000000     0          
T        Si     0.246400000000     0.818550000000     0.219600000000     0          
T        Si     0.292200000000     0.773550000000     0.037475000000     0          
T        Si     0.205650000000     0.568800000000     0.110200000000     0          
T        Si     0.159550000000     0.568200000000     0.027450000000     0          
T        Si     0.253600000000     0.568550000000     0.030400000000     0          
T        Si     0.207800000000     0.523550000000     0.212525000000     0          
T        Si     0.044350000000     0.681200000000     0.110200000000     0          
T        Si     0.090450000000     0.681800000000     0.027450000000     0          
T        Si     0.496400000000     0.681450000000     0.030400000000     0          
T        Si     0.042200000000     0.726450000000     0.212525000000     0          
T        Si     0.044350000000     0.568800000000     0.360200000000     0          
T        Si     0.090450000000     0.568200000000     0.277450000000     0          
T        Si     0.496400000000     0.568550000000     0.280400000000     0          
T        Si     0.042200000000     0.523550000000     0.462525000000     0          
T        Si     0.205650000000     0.681200000000     0.360200000000     0          
T        Si     0.159550000000     0.681800000000     0.277450000000     0          
T        Si     0.253600000000     0.681450000000     0.280400000000     0          
T        Si     0.207800000000     0.726450000000     0.462525000000     0          
T        Si     0.294350000000     0.931200000000     0.389800000000     0          
T        Si     0.340450000000     0.931800000000     0.472550000000     0          
T        Si     0.246400000000     0.931450000000     0.469600000000     0          
T        Si     0.292200000000     0.976450000000     0.287475000000     0          
T        Si     0.455650000000     0.818800000000     0.389800000000     0          
T        Si     0.409550000000     0.818200000000     0.472550000000     0          
T        Si     0.003600000000     0.818550000000     0.469600000000     0          
T        Si     0.457800000000     0.773550000000     0.287475000000     0          
T        Si     0.455650000000     0.931200000000     0.389800000000     0          
T        Si     0.409550000000     0.931800000000     0.472550000000     0          
T        Si     0.003600000000     0.931450000000     0.469600000000     0          
T        Si     0.457800000000     0.976450000000     0.287475000000     0          
T        Si     0.294350000000     0.818800000000     0.389800000000     0          
T        Si     0.340450000000     0.818200000000     0.472550000000     0          
T        Si     0.246400000000     0.818550000000     0.469600000000     0          
T        Si     0.292200000000     0.773550000000     0.287475000000     0          
T        Si     0.205650000000     0.568800000000     0.360200000000     0          
T        Si     0.159550000000     0.568200000000     0.277450000000     0          
T        Si     0.253600000000     0.568550000000     0.280400000000     0          
T        Si     0.207800000000     0.523550000000     0.462525000000     0          
T        Si     0.044350000000     0.681200000000     0.360200000000     0          
T        Si     0.090450000000     0.681800000000     0.277450000000     0          
T        Si     0.496400000000     0.681450000000     0.280400000000     0          
T        Si     0.042200000000     0.726450000000     0.462525000000     0          
T        Si     0.044350000000     0.568800000000     0.610200000000     0          
T        Si     0.090450000000     0.568200000000     0.527450000000     0          
T        Si     0.496400000000     0.568550000000     0.530400000000     0          
T        Si     0.042200000000     0.523550000000     0.712525000000     0          
T        Si     0.205650000000     0.681200000000     0.610200000000     0          
T        Si     0.159550000000     0.681800000000     0.527450000000     0          
T        Si     0.253600000000     0.681450000000     0.530400000000     0          
T        Si     0.207800000000     0.726450000000     0.712525000000     0          
T        Si     0.294350000000     0.931200000000     0.639800000000     0          
T        Si     0.340450000000     0.931800000000     0.722550000000     0          
T        Si     0.246400000000     0.931450000000     0.719600000000     0          
T        Si     0.292200000000     0.976450000000     0.537475000000     0          
T        Si     0.455650000000     0.818800000000     0.639800000000     0          
T        Si     0.409550000000     0.818200000000     0.722550000000     0          
T        Si     0.003600000000     0.818550000000     0.719600000000     0          
T        Si     0.457800000000     0.773550000000     0.537475000000     0          
T        Si     0.455650000000     0.931200000000     0.639800000000     0          
T        Si     0.409550000000     0.931800000000     0.722550000000     0          
T        Si     0.003600000000     0.931450000000     0.719600000000     0          
T        Si     0.457800000000     0.976450000000     0.537475000000     0          
T        Si     0.294350000000     0.818800000000     0.639800000000     0          
T        Si     0.340450000000     0.818200000000     0.722550000000     0          
T        Si     0.246400000000     0.818550000000     0.719600000000     0          
T        Si     0.292200000000     0.773550000000     0.537475000000     0          
T        Si     0.205650000000     0.568800000000     0.610200000000     0          
T        Si     0.159550000000     0.568200000000     0.527450000000     0          
T        Si     0.253600000000     0.568550000000     0.530400000000     0          
T        Si     0.207800000000     0.523550000000     0.712525000000     0          
T        Si     0.044350000000     0.681200000000     0.610200000000     0          
T        Si     0.090450000000     0.681800000000     0.527450000000     0          
T        Si     0.496400000000     0.681450000000     0.530400000000     0          
T        Si     0.042200000000     0.726450000000     0.712525000000     0          
T        Si     0.044350000000     0.568800000000     0.860200000000     0          
T        Si     0.090450000000     0.568200000000     0.777450000000     0          
T        Si     0.496400000000     0.568550000000     0.780400000000     0          
T        Si     0.042200000000     0.523550000000     0.962525000000     0          
T        Si     0.205650000000     0.681200000000     0.860200000000     0          
T        Si     0.159550000000     0.681800000000     0.777450000000     0          
T        Si     0.253600000000     0.681450000000     0.780400000000     0          
T        Si     0.207800000000     0.726450000000     0.962525000000     0          
T        Si     0.294350000000     0.931200000000     0.889800000000     0          
T        Si     0.340450000000     0.931800000000     0.972550000000     0          
T        Si     0.246400000000     0.931450000000     0.969600000000     0          
T        Si     0.292200000000     0.976450000000     0.787475000000     0          
T        Si     0.455650000000     0.818800000000     0.889800000000     0          
T        Si     0.409550000000     0.818200000000     0.972550000000     0          
T        Si     0.003600000000     0.818550000000     0.969600000000     0          
T        Si     0.457800000000     0.773550000000     0.787475000000     0          
T        Si     0.455650000000     0.931200000000     0.889800000000     0          
T        Si     0.409550000000     0.931800000000     0.972550000000     0          
T        Si     0.003600000000     0.931450000000     0.969600000000     0          
T        Si     0.457800000000     0.976450000000     0.787475000000     0          
T        Si     0.294350000000     0.818800000000     0.889800000000     0          
T        Si     0.340450000000     0.818200000000     0.972550000000     0          
T        Si     0.246400000000     0.818550000000     0.969600000000     0          
T        Si     0.292200000000     0.773550000000     0.787475000000     0          
T        Si     0.205650000000     0.568800000000     0.860200000000     0          
T        Si     0.159550000000     0.568200000000     0.777450000000     0          
T        Si     0.253600000000     0.568550000000     0.780400000000     0          
T        Si     0.207800000000     0.523550000000     0.962525000000     0          
T        Si     0.044350000000     0.681200000000     0.860200000000     0          
T        Si     0.090450000000     0.681800000000     0.777450000000     0          
T        Si     0.496400000000     0.681450000000     0.780400000000     0          
T        Si     0.042200000000     0.726450000000     0.962525000000     0          
T        Si     0.544350000000     0.068800000000     0.110200000000     0          
T        Si     0.590450000000     0.068200000000     0.027450000000     0          
T        Si     0.996400000000     0.068550000000     0.030400000000     0          
T        Si     0.542200000000     0.023550000000     0.212525000000     0          
T        Si     0.705650000000     0.181200000000     0.110200000000     0          
T        Si     0.659550000000     0.181800000000     0.027450000000     0          
T        Si     0.753600000000     0.181450000000     0.030400000000     0          
T        Si     0.707800000000     0.226450000000     0.212525000000     0          
T        Si     0.794350000000     0.431200000000     0.139800000000     0          
T        Si     0.840450000000     0.431800000000     0.222550000000     0          
T        Si     0.746400000000     0.431450000000     0.219600000000     0          
T        Si     0.792200000000     0.476450000000     0.037475000000     0          
T        Si     0.955650000000     0.318800000000     0.139800000000     0          
T        Si     0.909550000000     0.318200000000     0.222550000000     0          
T        Si     0.503600000000     0.318550000000     0.219600000000     0          
T        Si     0.957800000000     0.273550000000     0.037475000000     0          
T        Si     0.955650000000     0.431200000000     0.139800000000     0          
T        Si     0.909550000000     0.431800000000     0.222550000000     0          
T        Si     0.503600000000     0.431450000000     0.219600000000     0          
T        Si     0.957800000000     0.476450000000     0.037475000000     0          
T        Si     0.794350000000     0.318800000000     0.139800000000     0          
T        Si     0.840450000000     0.318200000000     0.222550000000     0          
T        Si     0.746400000000     0.318550000000     0.219600000000     0          
T        Si     0.792200000000     0.273550000000     0.037475000000     0          
T        Si     0.705650000000     0.068800000000     0.110200000000     0          
T        Si     0.659550000000     0.068200000000     0.027450000000     0          
T        Si     0.753600000000     0.068550000000     0.030400000000     0          
T        Si     0.707800000000     0.023550000000     0.212525000000     0          
T        Si     0.544350000000     0.181200000000     0.110200000000     0          
T        Si     0.590450000000     0.181800000000     0.027450000000     0          
T        Si     0.996400000000     0.181450000000     0.030400000000     0          
T        Si     0.542200000000     0.226450000000     0.212525000000     0          
T        Si     0.544350000000     0.068800000000     0.360200000000     0          
T        Si     0.590450000000     0.068200000000     0.277450000000     0          
T        Si     0.996400000000     0.068550000000     0.280400000000     0          
T        Si     0.542200000000     0.023550000000     0.462525000000     0          
T        Si     0.705650000000     0.181200000000     0.360200000000     0          
T        Si     0.659550000000     0.181800000000     0.277450000000     0          
T        Si     0.753600000000     0.181450000000     0.280400000000     0          
T        Si     0.707800000000     0.226450000000     0.462525000000     0          
T        Si     0.794350000000     0.431200000000     0.389800000000     0          
T        Si     0.840450000000     0.431800000000     0.472550000000     0          
T        Si     0.746400000000     0.431450000000     0.469600000000     0          
T        Si     0.792200000000     0.476450000000     0.287475000000     0          
T        Si     0.955650000000     0.318800000000     0.389800000000     0          
T        Si     0.909550000000     0.318200000000     0.472550000000     0          
T        Si     0.503600000000     0.318550000000     0.469600000000     0          
T        Si     0.957800000000     0.273550000000     0.287475000000     0          
T        Si     0.955650000000     0.431200000000     0.389800000000     0          
T        Si     0.909550000000     0.431800000000     0.472550000000     0          
T        Si     0.503600000000     0.431450000000     0.469600000000     0          
T        Si     0.957800000000     0.476450000000     0.287475000000     0          
T        Si     0.794350000000     0.318800000000     0.389800000000     0          
T        Si     0.840450000000     0.318200000000     0.472550000000     0          
T        Si     0.746400000000     0.318550000000     0.469600000000     0          
T        Si     0.792200000000     0.273550000000     0.287475000000     0          
T        Si     0.705650000000     0.068800000000     0.360200000000     0          
T        Si     0.659550000000     0.068200000000     0.277450000000     0          
T        Si     0.753600000000     0.068550000000     0.280400000000     0          
T        Si     0.707800000000     0.023550000000     0.462525000000     0          
T        Si     0.544350000000     0.181200000000     0.360200000000     0          
T        Si     0.590450000000     0.181800000000     0.277450000000     0          
T        Si     0.996400000000     0.181450000000     0.280400000000     0          
T        Si     0.542200000000     0.226450000000     0.462525000000     0          
T        Si     0.544350000000     0.068800000000     0.610200000000     0          
T        Si     0.590450000000     0.068200000000     0.527450000000     0          
T        Si     0.996400000000     0.068550000000     0.530400000000     0          
T        Si     0.542200000000     0.023550000000     0.712525000000     0          
T        Si     0.705650000000     0.181200000000     0.610200000000     0          
T        Si     0.659550000000     0.181800000000     0.527450000000     0          
T        Si     0.753600000000     0.181450000000     0.530400000000     0          
T        Si     0.707800000000     0.226450000000     0.712525000000     0          
T        Si     0.794350000000     0.431200000000     0.639800000000     0          
T        Si     0.840450000000     0.431800000000     0.722550000000     0          
T        Si     0.746400000000     0.431450000000     0.719600000000     0          
T        Si     0.792200000000     0.476450000000     0.537475000000     0          
T        Si     0.955650000000     0.318800000000     0.639800000000     0          
T        Si     0.909550000000     0.318200000000     0.722550000000     0          
T        Si     0.503600000000     0.318550000000     0.719600000000     0          
T        Si     0.957800000000     0.273550000000     0.537475000000     0          
T        Si     0.955650000000     0.431200000000     0.639800000000     0          
T        Si     0.909550000000     0.431800000000     0.722550000000     0          
T        Si     0.503600000000     0.431450000000     0.719600000000     0          
T        Si     0.957800000000     0.476450000000     0.537475000000     0          
T        Si     0.794350000000     0.318800000000     0.639800000000     0          
T        Si     0.840450000000     0.318200000000     0.722550000000     0          
T        Si     0.746400000000     0.318550000000     0.719600000000     0          
T        Si     0.792200000000     0.273550000000     0.537475000000     0          
T        Si     0.705650000000     0.068800000000     0.610200000000     0          
T        Si     0.659550000000     0.068200000000     0.527450000000     0          
T        Si     0.753600000000     0.068550000000     0.530400000000     0          
T        Si     0.707800000000     0.023550000000     0.712525000000     0          
T        Si     0.544350000000     0.181200000000     0.610200000000     0          
T        Si     0.590450000000     0.181800000000     0.527450000000     0          
T        Si     0.996400000000     0.181450000000     0.530400000000     0          
T        Si     0.542200000000     0.226450000000     0.712525000000     0          
T        Si     0.544350000000     0.068800000000     0.860200000000     0          
T        Si     0.590450000000     0.068200000000     0.777450000000     0          
T        Si     0.996400000000     0.068550000000     0.780400000000     0          
T        Si     0.542200000000     0.023550000000     0.962525000000     0          
T        Si     0.705650000000     0.181200000000     0.860200000000     0          
T        Si     0.659550000000     0.181800000000     0.777450000000     0          
T        Si     0.753600000000     0.181450000000     0.780400000000     0          
T        Si     0.707800000000     0.226450000000     0.962525000000     0          
T        Si     0.794350000000     0.431200000000     0.889800000000     0          
T        Si     0.840450000000     0.431800000000     0.972550000000     0          
T        Si     0.746400000000     0.431450000000     0.969600000000     0          
T        Si     0.792200000000     0.476450000000     0.787475000000     0          
T        Si     0.955650000000     0.318800000000     0.889800000000     0          
T        Si     0.909550000000     0.318200000000     0.972550000000     0          
T        Si     0.503600000000     0.318550000000     0.969600000000     0          
T        Si     0.957800000000     0.273550000000     0.787475000000     0          
T        Si     0.955650000000     0.431200000000     0.889800000000     0          
T        Si     0.909550000000     0.431800000000     0.972550000000     0          
T        Si     0.503600000000     0.431450000000     0.969600000000     0          
T        Si     0.957800000000     0.476450000000     0.787475000000     0          
T        Si     0.794350000000     0.318800000000     0.889800000000     0          
T        Si     0.840450000000     0.318200000000     0.972550000000     0          
T        Si     0.746400000000     0.318550000000     0.969600000000     0          
T        Si     0.792200000000     0.273550000000     0.787475000000     0          
T        Si     0.705650000000     0.068800000000     0.860200000000     0          
T        Si     0.659550000000     0.068200000000     0.777450000000     0          
T        Si     0.753600000000     0.068550000000     0.780400000000     0          
T        Si     0.707800000000     0.023550000000     0.962525000000     0          
T        Si     0.544350000000     0.181200000000     0.860200000000     0          
T        Si     0.590450000000     0.181800000000     0.777450000000     0          
T        Si     0.996400000000     0.181450000000     0.780400000000     0          
T        Si     0.542200000000     0.226450000000     0.962525000000     0          
T        Si     0.544350000000     0.568800000000     0.110200000000     0          
T        Si     0.590450000000     0.568200000000     0.027450000000     0          
T        Si     0.996400000000     0.568550000000     0.030400000000     0          
T        Si     0.542200000000     0.523550000000     0.212525000000     0          
T        Si     0.705650000000     0.681200000000     0.110200000000     0          
T        Si     0.659550000000     0.681800000000     0.027450000000     0          
T        Si     0.753600000000     0.681450000000     0.030400000000     0          
T        Si     0.707800000000     0.726450000000     0.212525000000     0          
T        Si     0.794350000000     0.931200000000     0.139800000000     0          
T        Si     0.840450000000     0.931800000000     0.222550000000     0          
T        Si     0.746400000000     0.931450000000     0.219600000000     0          
T        Si     0.792200000000     0.976450000000     0.037475000000     0          
T        Si     0.955650000000     0.818800000000     0.139800000000     0          
T        Si     0.909550000000     0.818200000000     0.222550000000     0          
T        Si     0.503600000000     0.818550000000     0.219600000000     0          
T        Si     0.957800000000     0.773550000000     0.037475000000     0          
T        Si     0.955650000000     0.931200000000     0.139800000000     0          
T        Si     0.909550000000     0.931800000000     0.222550000000     0          
T        Si     0.503600000000     0.931450000000     0.219600000000     0          
T        Si     0.957800000000     0.976450000000     0.037475000000     0          
T        Si     0.794350000000     0.818800000000     0.139800000000     0          
T        Si     0.840450000000     0.818200000000     0.222550000000     0          
T        Si     0.746400000000     0.818550000000     0.219600000000     0          
T        Si     0.792200000000     0.773550000000     0.037475000000     0          
T        Si     0.705650000000     0.568800000000     0.110200000000     0          
T        Si     0.659550000000     0.568200000000     0.027450000000     0          
T        Si     0.753600000000     0.568550000000     0.030400000000     0          
T        Si     0.707800000000     0.523550000000     0.212525000000     0          
T        Si     0.544350000000     0.681200000000     0.110200000000     0          
T        Si     0.590450000000     0.681800000000     0.027450000000     0          
T        Si     0.996400000000     0.681450000000     0.030400000000     0          
T        Si     0.542200000000     0.726450000000     0.212525000000     0          
T        Si     0.544350000000     0.568800000000     0.360200000000     0          
T        Si     0.590450000000     0.568200000000     0.277450000000     0          
T        Si     0.996400000000     0.568550000000     0.280400000000     0          
T        Si     0.542200000000     0.523550000000     0.462525000000     0          
T        Si     0.705650000000     0.681200000000     0.360200000000     0          
T        Si     0.659550000000     0.681800000000     0.277450000000     0          
T        Si     0.753600000000     0.681450000000     0.280400000000     0          
T        Si     0.707800000000     0.726450000000     0.462525000000     0          
T        Si     0.794350000000     0.931200000000     0.389800000000     0          
T        Si     0.840450000000     0.931800000000     0.472550000000     0          
T        Si     0.746400000000     0.931450000000     0.469600000000     0          
T        Si     0.792200000000     0.976450000000     0.287475000000     0          
T        Si     0.955650000000     0.818800000000     0.389800000000     0          
T        Si     0.909550000000     0.818200000000     0.472550000000     0          
T        Si     0.503600000000     0.818550000000     0.469600000000     0          
T        Si     0.957800000000     0.773550000000     0.287475000000     0          
T        Si     0.955650000000     0.931200000000     0.389800000000     0          
T        Si     0.909550000000     0.931800000000     0.472550000000     0          
T        Si     0.503600000000     0.931450000000     0.469600000000     0          
T        Si     0.957800000000     0.976450000000     0.287475000000     0          
T        Si     0.794350000000     0.818800000000     0.389800000000     0          
T        Si     0.840450000000     0.818200000000     0.472550000000     0          
T        Si     0.746400000000     0.818550000000     0.469600000000     0          
T        Si     0.792200000000     0.773550000000     0.287475000000     0          
T        Si     0.705650000000     0.568800000000     0.360200000000     0          
T        Si     0.659550000000     0.568200000000     0.277450000000     0          
T        Si     0.753600000000     0.568550000000     0.280400000000     0          
T        Si     0.707800000000     0.523550000000     0.462525000000     0          
T        Si     0.544350000000     0.681200000000     0.360200000000     0          
T        Si     0.590450000000     0.681800000000     0.277450000000     0          
T        Si     0.996400000000     0.681450000000     0.280400000000     0          
T        Si     0.542200000000     0.726450000000     0.462525000000     0          
T        Si     0.544350000000     0.568800000000     0.610200000000     0          
T        Si     0.590450000000     0.568200000000     0.527450000000     0          
T        Si     0.996400000000     0.568550000000     0.530400000000     0          
T        Si     0.542200000000     0.523550000000     0.712525000000     0          
T        Si     0.705650000000     0.681200000000     0.610200000000     0          
T        Si     0.659550000000     0.681800000000     0.527450000000     0          
T        Si     0.753600000000     0.681450000000     0.530400000000     0          
T        Si     0.707800000000     0.726450000000     0.712525000000     0          
T        Si     0.794350000000     0.931200000000     0.639800000000     0          
T        Si     0.840450000000     0.931800000000     0.722550000000     0          
T        Si     0.746400000000     0.931450000000     0.719600000000     0          
T        Si     0.792200000000     0.976450000000     0.537475000000     0          
T        Si     0.955650000000     0.818800000000     0.639800000000     0          
T        Si     0.909550000000     0.818200000000     0.722550000000     0          
T        Si     0.503600000000     0.818550000000     0.719600000000     0          
T        Si     0.957800000000     0.773550000000     0.537475000000     0          
T        Si     0.955650000000     0.931200000000     0.639800000000     0          
T        Si     0.909550000000     0.931800000000     0.722550000000     0          
T        Si     0.503600000000     0.931450000000     0.719600000000     0          
T        Si     0.957800000000     0.976450000000     0.537475000000     0          
T        Si     0.794350000000     0.818800000000     0.639800000000     0          
T        Si     0.840450000000     0.818200000000     0.722550000000     0          
T        Si     0.746400000000     0.818550000000     0.719600000000     0          
T        Si     0.792200000000     0.773550000000     0.537475000000     0          
T        Si     0.705650000000     0.568800000000     0.610200000000     0          
T        Si     0.659550000000     0.568200000000     0.527450000000     0          
T        Si     0.753600000000     0.568550000000     0.530400000000     0          
T        Si     0.707800000000     0.523550000000     0.712525000000     0          
T        Si     0.544350000000     0.681200000000     0.610200000000     0          
T        Si     0.590450000000     0.681800000000     0.527450000000     0          
T        Si     0.996400000000     0.681450000000     0.530400000000     0          
T        Si     0.542200000000     0.726450000000     0.712525000000     0          
T        Si     0.544350000000     0.568800000000     0.860200000000     0          
T        Si     0.590450000000     0.568200000000     0.777450000000     0          
T        Si     0.996400000000     0.568550000000     0.780400000000     0          
T        Si     0.542200000000     0.523550000000     0.962525000000     0          
T        Si     0.705650000000     0.681200000000     0.860200000000     0          
T        Si     0.659550000000     0.681800000000     0.777450000000     0          
T        Si     0.753600000000     0.681450000000     0.780400000000     0          
T        Si     0.707800000000     0.726450000000     0.962525000000     0          
T        Si     0.794350000000     0.931200000000     0.889800000000     0          
T        Si     0.840450000000     0.931800000000     0.972550000000     0          
T        Si     0.746400000000     0.931450000000     0.969600000000     0          
T        Si     0.792200000000     0.976450000000     0.787475000000     0          
T        Si     0.955650000000     0.818800000000     0.889800000000     0          
T        Si     0.909550000000     0.818200000000     0.972550000000     0          
T        Si     0.503600000000     0.818550000000     0.969600000000     0          
T        Si     0.957800000000     0.773550000000     0.787475000000     0          
T        Si     0.955650000000     0.931200000000     0.889800000000     0          
T        Si     0.909550000000     0.931800000000     0.972550000000     0          
T        Si     0.503600000000     0.931450000000     0.969600000000     0          
T        Si     0.957800000000     0.976450000000     0.787475000000     0          
T        Si     0.794350000000     0.818800000000     0.889800000000     0          
T        Si     0.840450000000     0.818200000000     0.972550000000     0          
T        Si     0.746400000000     0.818550000000     0.969600000000     0          
T        Si     0.792200000000     0.773550000000     0.787475000000     0          
T        Si     0.705650000000     0.568800000000     0.860200000000     0          
T        Si     0.659550000000     0.568200000000     0.777450000000     0          
T        Si     0.753600000000     0.568550000000     0.780400000000     0          
T        Si     0.707800000000     0.523550000000     0.962525000000     0          
T        Si     0.544350000000     0.681200000000     0.860200000000     0          
T        Si     0.590450000000     0.681800000000     0.777450000000     0          
T        Si     0.996400000000     0.681450000000     0.780400000000     0          
T        Si     0.542200000000     0.726450000000     0.962525000000     0          
O        O      0.074250000000     0.061850000000     0.078650000000     0          
O        O      0.015400000000     0.056150000000     0.077950000000     0          
O        O      0.045450000000     0.032300000000     0.155675000000     0          
O        O      0.042250000000     0.125000000000     0.128475000000     0          
O        O      0.073800000000     0.034200000000     0.238325000000     0          
O        O      0.088750000000     0.125000000000     0.010975000000     0          
O        O      0.125000000000     0.051650000000     0.031775000000     0          
O        O      0.485400000000     0.125000000000     0.032175000000     0          
O        O      0.017100000000     0.060200000000     0.233825000000     0          
O        O      0.467700000000     0.032650000000     0.027650000000     0          
O        O      0.175750000000     0.188150000000     0.078650000000     0          
O        O      0.234600000000     0.193850000000     0.077950000000     0          
O        O      0.204550000000     0.217700000000     0.155675000000     0          
O        O      0.207750000000     0.125000000000     0.128475000000     0          
O        O      0.176200000000     0.215800000000     0.238325000000     0          
O        O      0.161250000000     0.125000000000     0.010975000000     0          
O        O      0.125000000000     0.198350000000     0.031775000000     0          
O        O      0.264600000000     0.125000000000     0.032175000000     0          
O        O      0.232900000000     0.189800000000     0.233825000000     0          
O        O      0.282300000000     0.217350000000     0.027650000000     0          
O        O      0.324250000000     0.438150000000     0.171350000000     0          
O        O      0.265400000000     0.443850000000     0.172050000000     0          
O        O      0.295450000000     0.467700000000     0.094325000000     0          
O        O      0.292250000000     0.375000000000     0.121525000000     0          
O        O      0.323800000000     0.465800000000     0.011675000000     0          
O        O      0.338750000000     0.375000000000     0.239025000000     0          
O        O      0.375000000000     0.448350000000     0.218225000000     0          
O        O      0.235400000000     0.375000000000     0.217825000000     0          
O        O      0.267100000000     0.439800000000     0.016175000000     0          
O        O      0.217700000000     0.467350000000     0.222350000000     0          
O        O      0.425750000000     0.311850000000     0.171350000000     0          
O        O      0.484600000000     0.306150000000     0.172050000000     0          
O        O      0.454550000000     0.282300000000     0.094325000000     0          
O        O      0.457750000000     0.375000000000     0.121525000000     0          
O        O      0.426200000000     0.284200000000     0.011675000000     0          
O        O      0.411250000000     0.375000000000     0.239025000000     0          
O        O      0.375000000000     0.301650000000     0.218225000000     0          
O        O      0.014600000000     0.375000000000     0.217825000000     0          
O        O      0.482900000000     0.310200000000     0.016175000000     0          
O        O      0.032300000000     0.282650000000     0.222350000000     0          
O        O      0.425750000000     0.438150000000     0.171350000000     0          
O        O      0.484600000000     0.443850000000     0.172050000000     0          
O        O      0.454550000000     0.467700000000     0.094325000000     0          
O        O      0.426200000000     0.465800000000     0.011675000000     0          
O        O      0.482900000000     0.439800000000     0.016175000000     0          
O        O      0.032300000000     0.467350000000     0.222350000000     0          
O        O      0.324250000000     0.311850000000     0.171350000000     0          
O        O      0.265400000000     0.306150000000     0.172050000000     0          
O        O      0.295450000000     0.282300000000     0.094325000000     0          
O        O      0.323800000000     0.284200000000     0.011675000000     0          
O        O      0.267100000000     0.310200000000     0.016175000000     0          
O        O      0.217700000000     0.282650000000     0.222350000000     0          
O        O      0.175750000000     0.061850000000     0.078650000000     0          
O        O      0.234600000000     0.056150000000     0.077950000000     0          
O        O      0.204550000000     0.032300000000     0.155675000000     0          
O        O      0.176200000000     0.034200000000     0.238325000000     0          
O        O      0.232900000000     0.060200000000     0.233825000000     0          
O        O      0.282300000000     0.032650000000     0.027650000000     0          
O        O      0.074250000000     0.188150000000     0.078650000000     0          
O        O      0.015400000000     0.193850000000     0.077950000000     0          
O        O      0.045450000000     0.217700000000     0.155675000000     0          
O        O      0.073800000000     0.215800000000     0.238325000000     0          
O        O      0.017100000000     0.189800000000     0.233825000000     0          
O        O      0.467700000000     0.217350000000     0.027650000000     0          
O        O      0.074250000000     0.061850000000     0.328650000000     0          
O        O      0.015400000000     0.056150000000     0.327950000000     0          
O        O      0.045450000000     0.032300000000     0.405675000000     0          
O        O      0.042250000000     0.125000000000     0.378475000000     0          
O        O      0.073800000000     0.034200000000     0.488325000000     0          
O        O      0.088750000000     0.125000000000     0.260975000000     0          
O        O      0.125000000000     0.051650000000     0.281775000000     0          
O        O      0.485400000000     0.125000000000     0.282175000000     0          
O        O      0.017100000000     0.060200000000     0.483825000000     0          
O        O      0.467700000000     0.032650000000     0.277650000000     0          
O        O      0.175750000000     0.188150000000     0.328650000000     0          
O        O      0.234600000000     0.193850000000     0.327950000000     0          
O        O      0.204550000000     0.217700000000     0.405675000000     0          
O        O      0.207750000000     0.125000000000     0.378475000000     0          
O        O      0.176200000000     0.215800000000     0.488325000000     0          
O        O      0.161250000000     0.125000000000     0.260975000000     0          
O        O      0.125000000000     0.198350000000     0.281775000000     0          
O        O      0.264600000000     0.125000000000     0.282175000000     0          
O        O      0.232900000000     0.189800000000     0.483825000000     0          
O        O      0.282300000000     0.217350000000     0.277650000000     0          
O        O      0.324250000000     0.438150000000     0.421350000000     0          
O        O      0.265400000000     0.443850000000     0.422050000000     0          
O        O      0.295450000000     0.467700000000     0.344325000000     0          
O        O      0.292250000000     0.375000000000     0.371525000000     0          
O        O      0.323800000000     0.465800000000     0.261675000000     0          
O        O      0.338750000000     0.375000000000     0.489025000000     0          
O        O      0.375000000000     0.448350000000     0.468225000000     0          
O        O      0.235400000000     0.375000000000     0.467825000000     0          
O        O      0.267100000000     0.439800000000     0.266175000000     0          
O        O      0.217700000000     0.467350000000     0.472350000000     0          
O        O      0.425750000000     0.311850000000     0.421350000000     0          
O        O      0.484600000000     0.306150000000     0.422050000000     0          
O        O      0.454550000000     0.282300000000     0.344325000000     0          
O        O      0.457750000000     0.375000000000     0.371525000000     0          
O        O      0.426200000000     0.284200000000     0.261675000000     0          
O        O      0.411250000000     0.375000000000     0.489025000000     0          
O        O      0.375000000000     0.301650000000     0.468225000000     0          
O        O      0.014600000000     0.375000000000     0.467825000000     0          
O        O      0.482900000000     0.310200000000     0.266175000000     0          
O        O      0.032300000000     0.282650000000     0.472350000000     0          
O        O      0.425750000000     0.438150000000     0.421350000000     0          
O        O      0.484600000000     0.443850000000     0.422050000000     0          
O        O      0.454550000000     0.467700000000     0.344325000000     0          
O        O      0.426200000000     0.465800000000     0.261675000000     0          
O        O      0.482900000000     0.439800000000     0.266175000000     0          
O        O      0.032300000000     0.467350000000     0.472350000000     0          
O        O      0.324250000000     0.311850000000     0.421350000000     0          
O        O      0.265400000000     0.306150000000     0.422050000000     0          
O        O      0.295450000000     0.282300000000     0.344325000000     0          
O        O      0.323800000000     0.284200000000     0.261675000000     0          
O        O      0.267100000000     0.310200000000     0.266175000000     0          
O        O      0.217700000000     0.282650000000     0.472350000000     0          
O        O      0.175750000000     0.061850000000     0.328650000000     0          
O        O      0.234600000000     0.056150000000     0.327950000000     0          
O        O      0.204550000000     0.032300000000     0.405675000000     0          
O        O      0.176200000000     0.034200000000     0.488325000000     0          
O        O      0.232900000000     0.060200000000     0.483825000000     0          
O        O      0.282300000000     0.032650000000     0.277650000000     0          
O        O      0.074250000000     0.188150000000     0.328650000000     0          
O        O      0.015400000000     0.193850000000     0.327950000000     0          
O        O      0.045450000000     0.217700000000     0.405675000000     0          
O        O      0.073800000000     0.215800000000     0.488325000000     0          
O        O      0.017100000000     0.189800000000     0.483825000000     0          
O        O      0.467700000000     0.217350000000     0.277650000000     0          
O        O      0.074250000000     0.061850000000     0.578650000000     0          
O        O      0.015400000000     0.056150000000     0.577950000000     0          
O        O      0.045450000000     0.032300000000     0.655675000000     0          
O        O      0.042250000000     0.125000000000     0.628475000000     0          
O        O      0.073800000000     0.034200000000     0.738325000000     0          
O        O      0.088750000000     0.125000000000     0.510975000000     0          
O        O      0.125000000000     0.051650000000     0.531775000000     0          
O        O      0.485400000000     0.125000000000     0.532175000000     0          
O        O      0.017100000000     0.060200000000     0.733825000000     0          
O        O      0.467700000000     0.032650000000     0.527650000000     0          
O        O      0.175750000000     0.188150000000     0.578650000000     0          
O        O      0.234600000000     0.193850000000     0.577950000000     0          
O        O      0.204550000000     0.217700000000     0.655675000000     0          
O        O      0.207750000000     0.125000000000     0.628475000000     0          
O        O      0.176200000000     0.215800000000     0.738325000000     0          
O        O      0.161250000000     0.125000000000     0.510975000000     0          
O        O      0.125000000000     0.198350000000     0.531775000000     0          
O        O      0.264600000000     0.125000000000     0.532175000000     0          
O        O      0.232900000000     0.189800000000     0.733825000000     0          
O        O      0.282300000000     0.217350000000     0.527650000000     0          
O        O      0.324250000000     0.438150000000     0.671350000000     0          
O        O      0.265400000000     0.443850000000     0.672050000000     0          
O        O      0.295450000000     0.467700000000     0.594325000000     0          
O        O      0.292250000000     0.375000000000     0.621525000000     0          
O        O      0.323800000000     0.465800000000     0.511675000000     0          
O        O      0.338750000000     0.375000000000     0.739025000000     0          
O        O      0.375000000000     0.448350000000     0.718225000000     0          
O        O      0.235400000000     0.375000000000     0.717825000000     0          
O        O      0.267100000000     0.439800000000     0.516175000000     0          
O        O      0.217700000000     0.467350000000     0.722350000000     0          
O        O      0.425750000000     0.311850000000     0.671350000000     0          
O        O      0.484600000000     0.306150000000     0.672050000000     0          
O        O      0.454550000000     0.282300000000     0.594325000000     0          
O        O      0.457750000000     0.375000000000     0.621525000000     0          
O        O      0.426200000000     0.284200000000     0.511675000000     0          
O        O      0.411250000000     0.375000000000     0.739025000000     0          
O        O      0.375000000000     0.301650000000     0.718225000000     0          
O        O      0.014600000000     0.375000000000     0.717825000000     0          
O        O      0.482900000000     0.310200000000     0.516175000000     0          
O        O      0.032300000000     0.282650000000     0.722350000000     0          
O        O      0.425750000000     0.438150000000     0.671350000000     0          
O        O      0.484600000000     0.443850000000     0.672050000000     0          
O        O      0.454550000000     0.467700000000     0.594325000000     0          
O        O      0.426200000000     0.465800000000     0.511675000000     0          
O        O      0.482900000000     0.439800000000     0.516175000000     0          
O        O      0.032300000000     0.467350000000     0.722350000000     0          
O        O      0.324250000000     0.311850000000     0.671350000000     0          
O        O      0.265400000000     0.306150000000     0.672050000000     0          
O        O      0.295450000000     0.282300000000     0.594325000000     0          
O        O      0.323800000000     0.284200000000     0.511675000000     0          
O        O      0.267100000000     0.310200000000     0.516175000000     0          
O        O      0.217700000000     0.282650000000     0.722350000000     0          
O        O      0.175750000000     0.061850000000     0.578650000000     0          
O        O      0.234600000000     0.056150000000     0.577950000000     0          
O        O      0.204550000000     0.032300000000     0.655675000000     0          
O        O      0.176200000000     0.034200000000     0.738325000000     0          
O        O      0.232900000000     0.060200000000     0.733825000000     0          
O        O      0.282300000000     0.032650000000     0.527650000000     0          
O        O      0.074250000000     0.188150000000     0.578650000000     0          
O        O      0.015400000000     0.193850000000     0.577950000000     0          
O        O      0.045450000000     0.217700000000     0.655675000000     0          
O        O      0.073800000000     0.215800000000     0.738325000000     0          
O        O      0.017100000000     0.189800000000     0.733825000000     0          
O        O      0.467700000000     0.217350000000     0.527650000000     0          
O        O      0.074250000000     0.061850000000     0.828650000000     0          
O        O      0.015400000000     0.056150000000     0.827950000000     0          
O        O      0.045450000000     0.032300000000     0.905675000000     0          
O        O      0.042250000000     0.125000000000     0.878475000000     0          
O        O      0.073800000000     0.034200000000     0.988325000000     0          
O        O      0.088750000000     0.125000000000     0.760975000000     0          
O        O      0.125000000000     0.051650000000     0.781775000000     0          
O        O      0.485400000000     0.125000000000     0.782175000000     0          
O        O      0.017100000000     0.060200000000     0.983825000000     0          
O        O      0.467700000000     0.032650000000     0.777650000000     0          
O        O      0.175750000000     0.188150000000     0.828650000000     0          
O        O      0.234600000000     0.193850000000     0.827950000000     0          
O        O      0.204550000000     0.217700000000     0.905675000000     0          
O        O      0.207750000000     0.125000000000     0.878475000000     0          
O        O      0.176200000000     0.215800000000     0.988325000000     0          
O        O      0.161250000000     0.125000000000     0.760975000000     0          
O        O      0.125000000000     0.198350000000     0.781775000000     0          
O        O      0.264600000000     0.125000000000     0.782175000000     0          
O        O      0.232900000000     0.189800000000     0.983825000000     0          
O        O      0.282300000000     0.217350000000     0.777650000000     0          
O        O      0.324250000000     0.438150000000     0.921350000000     0          
O        O      0.265400000000     0.443850000000     0.922050000000     0          
O        O      0.295450000000     0.467700000000     0.844325000000     0          
O        O      0.292250000000     0.375000000000     0.871525000000     0          
O        O      0.323800000000     0.465800000000     0.761675000000     0          
O        O      0.338750000000     0.375000000000     0.989025000000     0          
O        O      0.375000000000     0.448350000000     0.968225000000     0          
O        O      0.235400000000     0.375000000000     0.967825000000     0          
O        O      0.267100000000     0.439800000000     0.766175000000     0          
O        O      0.217700000000     0.467350000000     0.972350000000     0          
O        O      0.425750000000     0.311850000000     0.921350000000     0          
O        O      0.484600000000     0.306150000000     0.922050000000     0          
O        O      0.454550000000     0.282300000000     0.844325000000     0          
O        O      0.457750000000     0.375000000000     0.871525000000     0          
O        O      0.426200000000     0.284200000000     0.761675000000     0          
O        O      0.411250000000     0.375000000000     0.989025000000     0          
O        O      0.375000000000     0.301650000000     0.968225000000     0          
O        O      0.014600000000     0.375000000000     0.967825000000     0          
O        O      0.482900000000     0.310200000000     0.766175000000     0          
O        O      0.032300000000     0.282650000000     0.972350000000     0          
O        O      0.425750000000     0.438150000000     0.921350000000     0          
O        O      0.484600000000     0.443850000000     0.922050000000     0          
O        O      0.454550000000     0.467700000000     0.844325000000     0          
O        O      0.426200000000     0.465800000000     0.761675000000     0          
O        O      0.482900000000     0.439800000000     0.766175000000     0          
O        O      0.032300000000     0.467350000000     0.972350000000     0          
O        O      0.324250000000     0.311850000000     0.921350000000     0          
O        O      0.265400000000     0.306150000000     0.922050000000     0          
O        O      0.295450000000     0.282300000000     0.844325000000     0          
O        O      0.323800000000     0.284200000000     0.761675000000     0          
O        O      0.267100000000     0.310200000000     0.766175000000     0          
O        O      0.217700000000     0.282650000000     0.972350000000     0          
O        O      0.175750000000     0.061850000000     0.828650000000     0          
O        O      0.234600000000     0.056150000000     0.827950000000     0          
O        O      0.204550000000     0.032300000000     0.905675000000     0          
O        O      0.176200000000     0.034200000000     0.988325000000     0          
O        O      0.232900000000     0.060200000000     0.983825000000     0          
O        O      0.282300000000     0.032650000000     0.777650000000     0          
O        O      0.074250000000     0.188150000000     0.828650000000     0          
O        O      0.015400000000     0.193850000000     0.827950000000     0          
O        O      0.045450000000     0.217700000000     0.905675000000     0          
O        O      0.073800000000     0.215800000000     0.988325000000     0          
O        O      0.017100000000     0.189800000000     0.983825000000     0          
O        O      0.467700000000     0.217350000000     0.777650000000     0          
O        O      0.074250000000     0.561850000000     0.078650000000     0          
O        O      0.015400000000     0.556150000000     0.077950000000     0          
O        O      0.045450000000     0.532300000000     0.155675000000     0          
O        O      0.042250000000     0.625000000000     0.128475000000     0          
O        O      0.073800000000     0.534200000000     0.238325000000     0          
O        O      0.088750000000     0.625000000000     0.010975000000     0          
O        O      0.125000000000     0.551650000000     0.031775000000     0          
O        O      0.485400000000     0.625000000000     0.032175000000     0          
O        O      0.017100000000     0.560200000000     0.233825000000     0          
O        O      0.467700000000     0.532650000000     0.027650000000     0          
O        O      0.175750000000     0.688150000000     0.078650000000     0          
O        O      0.234600000000     0.693850000000     0.077950000000     0          
O        O      0.204550000000     0.717700000000     0.155675000000     0          
O        O      0.207750000000     0.625000000000     0.128475000000     0          
O        O      0.176200000000     0.715800000000     0.238325000000     0          
O        O      0.161250000000     0.625000000000     0.010975000000     0          
O        O      0.125000000000     0.698350000000     0.031775000000     0          
O        O      0.264600000000     0.625000000000     0.032175000000     0          
O        O      0.232900000000     0.689800000000     0.233825000000     0          
O        O      0.282300000000     0.717350000000     0.027650000000     0          
O        O      0.324250000000     0.938150000000     0.171350000000     0          
O        O      0.265400000000     0.943850000000     0.172050000000     0          
O        O      0.295450000000     0.967700000000     0.094325000000     0          
O        O      0.292250000000     0.875000000000     0.121525000000     0          
O        O      0.323800000000     0.965800000000     0.011675000000     0          
O        O      0.338750000000     0.875000000000     0.239025000000     0          
O        O      0.375000000000     0.948350000000     0.218225000000     0          
O        O      0.235400000000     0.875000000000     0.217825000000     0          
O        O      0.267100000000     0.939800000000     0.016175000000     0          
O        O      0.217700000000     0.967350000000     0.222350000000     0          
O        O      0.425750000000     0.811850000000     0.171350000000     0          
O        O      0.484600000000     0.806150000000     0.172050000000     0          
O        O      0.454550000000     0.782300000000     0.094325000000     0          
O        O      0.457750000000     0.875000000000     0.121525000000     0          
O        O      0.426200000000     0.784200000000     0.011675000000     0          
O        O      0.411250000000     0.875000000000     0.239025000000     0          
O        O      0.375000000000     0.801650000000     0.218225000000     0          
O        O      0.014600000000     0.875000000000     0.217825000000     0          
O        O      0.482900000000     0.810200000000     0.016175000000     0          
O        O      0.032300000000     0.782650000000     0.222350000000     0          
O        O      0.425750000000     0.938150000000     0.171350000000     0          
O        O      0.484600000000     0.943850000000     0.172050000000     0          
O        O      0.454550000000     0.967700000000     0.094325000000     0          
O        O      0.426200000000     0.965800000000     0.011675000000     0          
O        O      0.482900000000     0.939800000000     0.016175000000     0          
O        O      0.032300000000     0.967350000000     0.222350000000     0          
O        O      0.324250000000     0.811850000000     0.171350000000     0          
O        O      0.265400000000     0.806150000000     0.172050000000     0          
O        O      0.295450000000     0.782300000000     0.094325000000     0          
O        O      0.323800000000     0.784200000000     0.011675000000     0          
O        O      0.267100000000     0.810200000000     0.016175000000     0          
O        O      0.217700000000     0.782650000000     0.222350000000     0          
O        O      0.175750000000     0.561850000000     0.078650000000     0          
O        O      0.234600000000     0.556150000000     0.077950000000     0          
O        O      0.204550000000     0.532300000000     0.155675000000     0          
O        O      0.176200000000     0.534200000000     0.238325000000     0          
O        O      0.232900000000     0.560200000000     0.233825000000     0          
O        O      0.282300000000     0.532650000000     0.027650000000     0          
O        O      0.074250000000     0.688150000000     0.078650000000     0          
O        O      0.015400000000     0.693850000000     0.077950000000     0          
O        O      0.045450000000     0.717700000000     0.155675000000     0          
O        O      0.073800000000     0.715800000000     0.238325000000     0          
O        O      0.017100000000     0.689800000000     0.233825000000     0          
O        O      0.467700000000     0.717350000000     0.027650000000     0          
O        O      0.074250000000     0.561850000000     0.328650000000     0          
O        O      0.015400000000     0.556150000000     0.327950000000     0          
O        O      0.045450000000     0.532300000000     0.405675000000     0          
O        O      0.042250000000     0.625000000000     0.378475000000     0          
O        O      0.073800000000     0.534200000000     0.488325000000     0          
O        O      0.088750000000     0.625000000000     0.260975000000     0          
O        O      0.125000000000     0.551650000000     0.281775000000     0          
O        O      0.485400000000     0.625000000000     0.282175000000     0          
O        O      0.017100000000     0.560200000000     0.483825000000     0          
O        O      0.467700000000     0.532650000000     0.277650000000     0          
O        O      0.175750000000     0.688150000000     0.328650000000     0          
O        O      0.234600000000     0.693850000000     0.327950000000     0          
O        O      0.204550000000     0.717700000000     0.405675000000     0          
O        O      0.207750000000     0.625000000000     0.378475000000     0          
O        O      0.176200000000     0.715800000000     0.488325000000     0          
O        O      0.161250000000     0.625000000000     0.260975000000     0          
O        O      0.125000000000     0.698350000000     0.281775000000     0          
O        O      0.264600000000     0.625000000000     0.282175000000     0          
O        O      0.232900000000     0.689800000000     0.483825000000     0          
O        O      0.282300000000     0.717350000000     0.277650000000     0          
O        O      0.324250000000     0.938150000000     0.421350000000     0          
O        O      0.265400000000     0.943850000000     0.422050000000     0          
O        O      0.295450000000     0.967700000000     0.344325000000     0          
O        O      0.292250000000     0.875000000000     0.371525000000     0          
O        O      0.323800000000     0.965800000000     0.261675000000     0          
O        O      0.338750000000     0.875000000000     0.489025000000     0          
O        O      0.375000000000     0.948350000000     0.468225000000     0          
O        O      0.235400000000     0.875000000000     0.467825000000     0          
O        O      0.267100000000     0.939800000000     0.266175000000     0          
O        O      0.217700000000     0.967350000000     0.472350000000     0          
O        O      0.425750000000     0.811850000000     0.421350000000     0          
O        O      0.484600000000     0.806150000000     0.422050000000     0          
O        O      0.454550000000     0.782300000000     0.344325000000     0          
O        O      0.457750000000     0.875000000000     0.371525000000     0          
O        O      0.426200000000     0.784200000000     0.261675000000     0          
O        O      0.411250000000     0.875000000000     0.489025000000     0          
O        O      0.375000000000     0.801650000000     0.468225000000     0          
O        O      0.014600000000     0.875000000000     0.467825000000     0          
O        O      0.482900000000     0.810200000000     0.266175000000     0          
O        O      0.032300000000     0.782650000000     0.472350000000     0          
O        O      0.425750000000     0.938150000000     0.421350000000     0          
O        O      0.484600000000     0.943850000000     0.422050000000     0          
O        O      0.454550000000     0.967700000000     0.344325000000     0          
O        O      0.426200000000     0.965800000000     0.261675000000     0          
O        O      0.482900000000     0.939800000000     0.266175000000     0          
O        O      0.032300000000     0.967350000000     0.472350000000     0          
O        O      0.324250000000     0.811850000000     0.421350000000     0          
O        O      0.265400000000     0.806150000000     0.422050000000     0          
O        O      0.295450000000     0.782300000000     0.344325000000     0          
O        O      0.323800000000     0.784200000000     0.261675000000     0          
O        O      0.267100000000     0.810200000000     0.266175000000     0          
O        O      0.217700000000     0.782650000000     0.472350000000     0          
O        O      0.175750000000     0.561850000000     0.328650000000     0          
O        O      0.234600000000     0.556150000000     0.327950000000     0          
O        O      0.204550000000     0.532300000000     0.405675000000     0          
O        O      0.176200000000     0.534200000000     0.488325000000     0          
O        O      0.232900000000     0.560200000000     0.483825000000     0          
O        O      0.282300000000     0.532650000000     0.277650000000     0          
O        O      0.074250000000     0.688150000000     0.328650000000     0          
O        O      0.015400000000     0.693850000000     0.327950000000     0          
O        O      0.045450000000     0.717700000000     0.405675000000     0          
O        O      0.073800000000     0.715800000000     0.488325000000     0          
O        O      0.017100000000     0.689800000000     0.483825000000     0          
O        O      0.467700000000     0.717350000000     0.277650000000     0          
O        O      0.074250000000     0.561850000000     0.578650000000     0          
O        O      0.015400000000     0.556150000000     0.577950000000     0          
O        O      0.045450000000     0.532300000000     0.655675000000     0          
O        O      0.042250000000     0.625000000000     0.628475000000     0          
O        O      0.073800000000     0.534200000000     0.738325000000     0          
O        O      0.088750000000     0.625000000000     0.510975000000     0          
O        O      0.125000000000     0.551650000000     0.531775000000     0          
O        O      0.485400000000     0.625000000000     0.532175000000     0          
O        O      0.017100000000     0.560200000000     0.733825000000     0          
O        O      0.467700000000     0.532650000000     0.527650000000     0          
O        O      0.175750000000     0.688150000000     0.578650000000     0          
O        O      0.234600000000     0.693850000000     0.577950000000     0          
O        O      0.204550000000     0.717700000000     0.655675000000     0          
O        O      0.207750000000     0.625000000000     0.628475000000     0          
O        O      0.176200000000     0.715800000000     0.738325000000     0          
O        O      0.161250000000     0.625000000000     0.510975000000     0          
O        O      0.125000000000     0.698350000000     0.531775000000     0          
O        O      0.264600000000     0.625000000000     0.532175000000     0          
O        O      0.232900000000     0.689800000000     0.733825000000     0          
O        O      0.282300000000     0.717350000000     0.527650000000     0          
O        O      0.324250000000     0.938150000000     0.671350000000     0          
O        O      0.265400000000     0.943850000000     0.672050000000     0          
O        O      0.295450000000     0.967700000000     0.594325000000     0          
O        O      0.292250000000     0.875000000000     0.621525000000     0          
O        O      0.323800000000     0.965800000000     0.511675000000     0          
O        O      0.338750000000     0.875000000000     0.739025000000     0          
O        O      0.375000000000     0.948350000000     0.718225000000     0          
O        O      0.235400000000     0.875000000000     0.717825000000     0          
O        O      0.267100000000     0.939800000000     0.516175000000     0          
O        O      0.217700000000     0.967350000000     0.722350000000     0          
O        O      0.425750000000     0.811850000000     0.671350000000     0          
O        O      0.484600000000     0.806150000000     0.672050000000     0          
O        O      0.454550000000     0.782300000000     0.594325000000     0          
O        O      0.457750000000     0.875000000000     0.621525000000     0          
O        O      0.426200000000     0.784200000000     0.511675000000     0          
O        O      0.411250000000     0.875000000000     0.739025000000     0          
O        O      0.375000000000     0.801650000000     0.718225000000     0          
O        O      0.014600000000     0.875000000000     0.717825000000     0          
O        O      0.482900000000     0.810200000000     0.516175000000     0          
O        O      0.032300000000     0.782650000000     0.722350000000     0          
O        O      0.425750000000     0.938150000000     0.671350000000     0          
O        O      0.484600000000     0.943850000000     0.672050000000     0          
O        O      0.454550000000     0.967700000000     0.594325000000     0          
O        O      0.426200000000     0.965800000000     0.511675000000     0          
O        O      0.482900000000     0.939800000000     0.516175000000     0          
O        O      0.032300000000     0.967350000000     0.722350000000     0          
O        O      0.324250000000     0.811850000000     0.671350000000     0          
O        O      0.265400000000     0.806150000000     0.672050000000     0          
O        O      0.295450000000     0.782300000000     0.594325000000     0          
O        O      0.323800000000     0.784200000000     0.511675000000     0          
O        O      0.267100000000     0.810200000000     0.516175000000     0          
O        O      0.217700000000     0.782650000000     0.722350000000     0          
O        O      0.175750000000     0.561850000000     0.578650000000     0          
O        O      0.234600000000     0.556150000000     0.577950000000     0          
O        O      0.204550000000     0.532300000000     0.655675000000     0          
O        O      0.176200000000     0.534200000000     0.738325000000     0          
O        O      0.232900000000     0.560200000000     0.733825000000     0          
O        O      0.282300000000     0.532650000000     0.527650000000     0          
O        O      0.074250000000     0.688150000000     0.578650000000     0          
O        O      0.015400000000     0.693850000000     0.577950000000     0          
O        O      0.045450000000     0.717700000000     0.655675000000     0          
O        O      0.073800000000     0.715800000000     0.738325000000     0          
O        O      0.017100000000     0.689800000000     0.733825000000     0          
O        O      0.467700000000     0.717350000000     0.527650000000     0          
O        O      0.074250000000     0.561850000000     0.828650000000     0          
O        O      0.015400000000     0.556150000000     0.827950000000     0          
O        O      0.045450000000     0.532300000000     0.905675000000     0          
O        O      0.042250000000     0.625000000000     0.878475000000     0          
O        O      0.073800000000     0.534200000000     0.988325000000     0          
O        O      0.088750000000     0.625000000000     0.760975000000     0          
O        O      0.125000000000     0.551650000000     0.781775000000     0          
O        O      0.485400000000     0.625000000000     0.782175000000     0          
O        O      0.017100000000     0.560200000000     0.983825000000     0          
O        O      0.467700000000     0.532650000000     0.777650000000     0          
O        O      0.175750000000     0.688150000000     0.828650000000     0          
O        O      0.234600000000     0.693850000000     0.827950000000     0          
O        O      0.204550000000     0.717700000000     0.905675000000     0          
O        O      0.207750000000     0.625000000000     0.878475000000     0          
O        O      0.176200000000     0.715800000000     0.988325000000     0          
O        O      0.161250000000     0.625000000000     0.760975000000     0          
O        O      0.125000000000     0.698350000000     0.781775000000     0          
O        O      0.264600000000     0.625000000000     0.782175000000     0          
O        O      0.232900000000     0.689800000000     0.983825000000     0          
O        O      0.282300000000     0.717350000000     0.777650000000     0          
O        O      0.324250000000     0.938150000000     0.921350000000     0          
O        O      0.265400000000     0.943850000000     0.922050000000     0          
O        O      0.295450000000     0.967700000000     0.844325000000     0          
O        O      0.292250000000     0.875000000000     0.871525000000     0          
O        O      0.323800000000     0.965800000000     0.761675000000     0          
O        O      0.338750000000     0.875000000000     0.989025000000     0          
O        O      0.375000000000     0.948350000000     0.968225000000     0          
O        O      0.235400000000     0.875000000000     0.967825000000     0          
O        O      0.267100000000     0.939800000000     0.766175000000     0          
O        O      0.217700000000     0.967350000000     0.972350000000     0          
O        O      0.425750000000     0.811850000000     0.921350000000     0          
O        O      0.484600000000     0.806150000000     0.922050000000     0          
O        O      0.454550000000     0.782300000000     0.844325000000     0          
O        O      0.457750000000     0.875000000000     0.871525000000     0          
O        O      0.426200000000     0.784200000000     0.761675000000     0          
O        O      0.411250000000     0.875000000000     0.989025000000     0          
O        O      0.375000000000     0.801650000000     0.968225000000     0          
O        O      0.014600000000     0.875000000000     0.967825000000     0          
O        O      0.482900000000     0.810200000000     0.766175000000     0          
O        O      0.032300000000     0.782650000000     0.972350000000     0          
O        O      0.425750000000     0.938150000000     0.921350000000     0          
O        O      0.484600000000     0.943850000000     0.922050000000     0          
O        O      0.454550000000     0.967700000000     0.844325000000     0          
O        O      0.426200000000     0.965800000000     0.761675000000     0          
O        O      0.482900000000     0.939800000000     0.766175000000     0          
O        O      0.032300000000     0.967350000000     0.972350000000     0          
O        O      0.324250000000     0.811850000000     0.921350000000     0          
O        O      0.265400000000     0.806150000000     0.922050000000     0          
O        O      0.295450000000     0.782300000000     0.844325000000     0          
O        O      0.323800000000     0.784200000000     0.761675000000     0          
O        O      0.267100000000     0.810200000000     0.766175000000     0          
O        O      0.217700000000     0.782650000000     0.972350000000     0          
O        O      0.175750000000     0.561850000000     0.828650000000     0          
O        O      0.234600000000     0.556150000000     0.827950000000     0          
O        O      0.204550000000     0.532300000000     0.905675000000     0          
O        O      0.176200000000     0.534200000000     0.988325000000     0          
O        O      0.232900000000     0.560200000000     0.983825000000     0          
O        O      0.282300000000     0.532650000000     0.777650000000     0          
O        O      0.074250000000     0.688150000000     0.828650000000     0          
O        O      0.015400000000     0.693850000000     0.827950000000     0          
O        O      0.045450000000     0.717700000000     0.905675000000     0          
O        O      0.073800000000     0.715800000000     0.988325000000     0          
O        O      0.017100000000     0.689800000000     0.983825000000     0          
O        O      0.467700000000     0.717350000000     0.777650000000     0          
O        O      0.574250000000     0.061850000000     0.078650000000     0          
O        O      0.515400000000     0.056150000000     0.077950000000     0          
O        O      0.545450000000     0.032300000000     0.155675000000     0          
O        O      0.542250000000     0.125000000000     0.128475000000     0          
O        O      0.573800000000     0.034200000000     0.238325000000     0          
O        O      0.588750000000     0.125000000000     0.010975000000     0          
O        O      0.625000000000     0.051650000000     0.031775000000     0          
O        O      0.985400000000     0.125000000000     0.032175000000     0          
O        O      0.517100000000     0.060200000000     0.233825000000     0          
O        O      0.967700000000     0.032650000000     0.027650000000     0          
O        O      0.675750000000     0.188150000000     0.078650000000     0          
O        O      0.734600000000     0.193850000000     0.077950000000     0          
O        O      0.704550000000     0.217700000000     0.155675000000     0          
O        O      0.707750000000     0.125000000000     0.128475000000     0          
O        O      0.676200000000     0.215800000000     0.238325000000     0          
O        O      0.661250000000     0.125000000000     0.010975000000     0          
O        O      0.625000000000     0.198350000000     0.031775000000     0          
O        O      0.764600000000     0.125000000000     0.032175000000     0          
O        O      0.732900000000     0.189800000000     0.233825000000     0          
O        O      0.782300000000     0.217350000000     0.027650000000     0          
O        O      0.824250000000     0.438150000000     0.171350000000     0          
O        O      0.765400000000     0.443850000000     0.172050000000     0          
O        O      0.795450000000     0.467700000000     0.094325000000     0          
O        O      0.792250000000     0.375000000000     0.121525000000     0          
O        O      0.823800000000     0.465800000000     0.011675000000     0          
O        O      0.838750000000     0.375000000000     0.239025000000     0          
O        O      0.875000000000     0.448350000000     0.218225000000     0          
O        O      0.735400000000     0.375000000000     0.217825000000     0          
O        O      0.767100000000     0.439800000000     0.016175000000     0          
O        O      0.717700000000     0.467350000000     0.222350000000     0          
O        O      0.925750000000     0.311850000000     0.171350000000     0          
O        O      0.984600000000     0.306150000000     0.172050000000     0          
O        O      0.954550000000     0.282300000000     0.094325000000     0          
O        O      0.957750000000     0.375000000000     0.121525000000     0          
O        O      0.926200000000     0.284200000000     0.011675000000     0          
O        O      0.911250000000     0.375000000000     0.239025000000     0          
O        O      0.875000000000     0.301650000000     0.218225000000     0          
O        O      0.514600000000     0.375000000000     0.217825000000     0          
O        O      0.982900000000     0.310200000000     0.016175000000     0          
O        O      0.532300000000     0.282650000000     0.222350000000     0          
O        O      0.925750000000     0.438150000000     0.171350000000     0          
O        O      0.984600000000     0.443850000000     0.172050000000     0          
O        O      0.954550000000     0.467700000000     0.094325000000     0          
O        O      0.926200000000     0.465800000000     0.011675000000     0          
O        O      0.982900000000     0.439800000000     0.016175000000     0          
O        O      0.532300000000     0.467350000000     0.222350000000     0          
O        O      0.824250000000     0.311850000000     0.171350000000     0          
O        O      0.765400000000     0.306150000000     0.172050000000     0          
O        O      0.795450000000     0.282300000000     0.094325000000     0          
O        O      0.823800000000     0.284200000000     0.011675000000     0          
O        O      0.767100000000     0.310200000000     0.016175000000     0          
O        O      0.717700000000     0.282650000000     0.222350000000     0          
O        O      0.675750000000     0.061850000000     0.078650000000     0          
O        O      0.734600000000     0.056150000000     0.077950000000     0          
O        O      0.704550000000     0.032300000000     0.155675000000     0          
O        O      0.676200000000     0.034200000000     0.238325000000     0          
O        O      0.732900000000     0.060200000000     0.233825000000     0          
O        O      0.782300000000     0.032650000000     0.027650000000     0          
O        O      0.574250000000     0.188150000000     0.078650000000     0          
O        O      0.515400000000     0.193850000000     0.077950000000     0          
O        O      0.545450000000     0.217700000000     0.155675000000     0          
O        O      0.573800000000     0.215800000000     0.238325000000     0          
O        O      0.517100000000     0.189800000000     0.233825000000     0          
O        O      0.967700000000     0.217350000000     0.027650000000     0          
O        O      0.574250000000     0.061850000000     0.328650000000     0          
O        O      0.515400000000     0.056150000000     0.327950000000     0          
O        O      0.545450000000     0.032300000000     0.405675000000     0          
O        O      0.542250000000     0.125000000000     0.378475000000     0          
O        O      0.573800000000     0.034200000000     0.488325000000     0          
O        O      0.588750000000     0.125000000000     0.260975000000     0          
O        O      0.625000000000     0.051650000000     0.281775000000     0          
O        O      0.985400000000     0.125000000000     0.282175000000     0          
O        O      0.517100000000     0.060200000000     0.483825000000     0          
O        O      0.967700000000     0.032650000000     0.277650000000     0          
O        O      0.675750000000     0.188150000000     0.328650000000     0          
O        O      0.734600000000     0.193850000000     0.327950000000     0          
O        O      0.704550000000     0.217700000000     0.405675000000     0          
O        O      0.707750000000     0.125000000000     0.378475000000     0          
O        O      0.676200000000     0.215800000000     0.488325000000     0          
O        O      0.661250000000     0.125000000000     0.260975000000     0          
O        O      0.625000000000     0.198350000000     0.281775000000     0          
O        O      0.764600000000     0.125000000000     0.282175000000     0          
O        O      0.732900000000     0.189800000000     0.483825000000     0          
O        O      0.782300000000     0.217350000000     0.277650000000     0          
O        O      0.824250000000     0.438150000000     0.421350000000     0          
O        O      0.765400000000     0.443850000000     0.422050000000     0          
O        O      0.795450000000     0.467700000000     0.344325000000     0          
O        O      0.792250000000     0.375000000000     0.371525000000     0          
O        O      0.823800000000     0.465800000000     0.261675000000     0          
O        O      0.838750000000     0.375000000000     0.489025000000     0          
O        O      0.875000000000     0.448350000000     0.468225000000     0          
O        O      0.735400000000     0.375000000000     0.467825000000     0          
O        O      0.767100000000     0.439800000000     0.266175000000     0          
O        O      0.717700000000     0.467350000000     0.472350000000     0          
O        O      0.925750000000     0.311850000000     0.421350000000     0          
O        O      0.984600000000     0.306150000000     0.422050000000     0          
O        O      0.954550000000     0.282300000000     0.344325000000     0          
O        O      0.957750000000     0.375000000000     0.371525000000     0          
O        O      0.926200000000     0.284200000000     0.261675000000     0          
O        O      0.911250000000     0.375000000000     0.489025000000     0          
O        O      0.875000000000     0.301650000000     0.468225000000     0          
O        O      0.514600000000     0.375000000000     0.467825000000     0          
O        O      0.982900000000     0.310200000000     0.266175000000     0          
O        O      0.532300000000     0.282650000000     0.472350000000     0          
O        O      0.925750000000     0.438150000000     0.421350000000     0          
O        O      0.984600000000     0.443850000000     0.422050000000     0          
O        O      0.954550000000     0.467700000000     0.344325000000     0          
O        O      0.926200000000     0.465800000000     0.261675000000     0          
O        O      0.982900000000     0.439800000000     0.266175000000     0          
O        O      0.532300000000     0.467350000000     0.472350000000     0          
O        O      0.824250000000     0.311850000000     0.421350000000     0          
O        O      0.765400000000     0.306150000000     0.422050000000     0          
O        O      0.795450000000     0.282300000000     0.344325000000     0          
O        O      0.823800000000     0.284200000000     0.261675000000     0          
O        O      0.767100000000     0.310200000000     0.266175000000     0          
O        O      0.717700000000     0.282650000000     0.472350000000     0          
O        O      0.675750000000     0.061850000000     0.328650000000     0          
O        O      0.734600000000     0.056150000000     0.327950000000     0          
O        O      0.704550000000     0.032300000000     0.405675000000     0          
O        O      0.676200000000     0.034200000000     0.488325000000     0          
O        O      0.732900000000     0.060200000000     0.483825000000     0          
O        O      0.782300000000     0.032650000000     0.277650000000     0          
O        O      0.574250000000     0.188150000000     0.328650000000     0          
O        O      0.515400000000     0.193850000000     0.327950000000     0          
O        O      0.545450000000     0.217700000000     0.405675000000     0          
O        O      0.573800000000     0.215800000000     0.488325000000     0          
O        O      0.517100000000     0.189800000000     0.483825000000     0          
O        O      0.967700000000     0.217350000000     0.277650000000     0          
O        O      0.574250000000     0.061850000000     0.578650000000     0          
O        O      0.515400000000     0.056150000000     0.577950000000     0          
O        O      0.545450000000     0.032300000000     0.655675000000     0          
O        O      0.542250000000     0.125000000000     0.628475000000     0          
O        O      0.573800000000     0.034200000000     0.738325000000     0          
O        O      0.588750000000     0.125000000000     0.510975000000     0          
O        O      0.625000000000     0.051650000000     0.531775000000     0          
O        O      0.985400000000     0.125000000000     0.532175000000     0          
O        O      0.517100000000     0.060200000000     0.733825000000     0          
O        O      0.967700000000     0.032650000000     0.527650000000     0          
O        O      0.675750000000     0.188150000000     0.578650000000     0          
O        O      0.734600000000     0.193850000000     0.577950000000     0          
O        O      0.704550000000     0.217700000000     0.655675000000     0          
O        O      0.707750000000     0.125000000000     0.628475000000     0          
O        O      0.676200000000     0.215800000000     0.738325000000     0          
O        O      0.661250000000     0.125000000000     0.510975000000     0          
O        O      0.625000000000     0.198350000000     0.531775000000     0          
O        O      0.764600000000     0.125000000000     0.532175000000     0          
O        O      0.732900000000     0.189800000000     0.733825000000     0          
O        O      0.782300000000     0.217350000000     0.527650000000     0          
O        O      0.824250000000     0.438150000000     0.671350000000     0          
O        O      0.765400000000     0.443850000000     0.672050000000     0          
O        O      0.795450000000     0.467700000000     0.594325000000     0          
O        O      0.792250000000     0.375000000000     0.621525000000     0          
O        O      0.823800000000     0.465800000000     0.511675000000     0          
O        O      0.838750000000     0.375000000000     0.739025000000     0          
O        O      0.875000000000     0.448350000000     0.718225000000     0          
O        O      0.735400000000     0.375000000000     0.717825000000     0          
O        O      0.767100000000     0.439800000000     0.516175000000     0          
O        O      0.717700000000     0.467350000000     0.722350000000     0          
O        O      0.925750000000     0.311850000000     0.671350000000     0          
O        O      0.984600000000     0.306150000000     0.672050000000     0          
O        O      0.954550000000     0.282300000000     0.594325000000     0          
O        O      0.957750000000     0.375000000000     0.621525000000     0          
O        O      0.926200000000     0.284200000000     0.511675000000     0          
O        O      0.911250000000     0.375000000000     0.739025000000     0          
O        O      0.875000000000     0.301650000000     0.718225000000     0          
O        O      0.514600000000     0.375000000000     0.717825000000     0          
O        O      0.982900000000     0.310200000000     0.516175000000     0          
O        O      0.532300000000     0.282650000000     0.722350000000     0          
O        O      0.925750000000     0.438150000000     0.671350000000     0          
O        O      0.984600000000     0.443850000000     0.672050000000     0          
O        O      0.954550000000     0.467700000000     0.594325000000     0          
O        O      0.926200000000     0.465800000000     0.511675000000     0          
O        O      0.982900000000     0.439800000000     0.516175000000     0          
O        O      0.532300000000     0.467350000000     0.722350000000     0          
O        O      0.824250000000     0.311850000000     0.671350000000     0          
O        O      0.765400000000     0.306150000000     0.672050000000     0          
O        O      0.795450000000     0.282300000000     0.594325000000     0          
O        O      0.823800000000     0.284200000000     0.511675000000     0          
O        O      0.767100000000     0.310200000000     0.516175000000     0          
O        O      0.717700000000     0.282650000000     0.722350000000     0          
O        O      0.675750000000     0.061850000000     0.578650000000     0          
O        O      0.734600000000     0.056150000000     0.577950000000     0          
O        O      0.704550000000     0.032300000000     0.655675000000     0          
O        O      0.676200000000     0.034200000000     0.738325000000     0          
O        O      0.732900000000     0.060200000000     0.733825000000     0          
O        O      0.782300000000     0.032650000000     0.527650000000     0          
O        O      0.574250000000     0.188150000000     0.578650000000     0          
O        O      0.515400000000     0.193850000000     0.577950000000     0          
O        O      0.545450000000     0.217700000000     0.655675000000     0          
O        O      0.573800000000     0.215800000000     0.738325000000     0          
O        O      0.517100000000     0.189800000000     0.733825000000     0          
O        O      0.967700000000     0.217350000000     0.527650000000     0          
O        O      0.574250000000     0.061850000000     0.828650000000     0          
O        O      0.515400000000     0.056150000000     0.827950000000     0          
O        O      0.545450000000     0.032300000000     0.905675000000     0          
O        O      0.542250000000     0.125000000000     0.878475000000     0          
O        O      0.573800000000     0.034200000000     0.988325000000     0          
O        O      0.588750000000     0.125000000000     0.760975000000     0          
O        O      0.625000000000     0.051650000000     0.781775000000     0          
O        O      0.985400000000     0.125000000000     0.782175000000     0          
O        O      0.517100000000     0.060200000000     0.983825000000     0          
O        O      0.967700000000     0.032650000000     0.777650000000     0          
O        O      0.675750000000     0.188150000000     0.828650000000     0          
O        O      0.734600000000     0.193850000000     0.827950000000     0          
O        O      0.704550000000     0.217700000000     0.905675000000     0          
O        O      0.707750000000     0.125000000000     0.878475000000     0          
O        O      0.676200000000     0.215800000000     0.988325000000     0          
O        O      0.661250000000     0.125000000000     0.760975000000     0          
O        O      0.625000000000     0.198350000000     0.781775000000     0          
O        O      0.764600000000     0.125000000000     0.782175000000     0          
O        O      0.732900000000     0.189800000000     0.983825000000     0          
O        O      0.782300000000     0.217350000000     0.777650000000     0          
O        O      0.824250000000     0.438150000000     0.921350000000     0          
O        O      0.765400000000     0.443850000000     0.922050000000     0          
O        O      0.795450000000     0.467700000000     0.844325000000     0          
O        O      0.792250000000     0.375000000000     0.871525000000     0          
O        O      0.823800000000     0.465800000000     0.761675000000     0          
O        O      0.838750000000     0.375000000000     0.989025000000     0          
O        O      0.875000000000     0.448350000000     0.968225000000     0          
O        O      0.735400000000     0.375000000000     0.967825000000     0          
O        O      0.767100000000     0.439800000000     0.766175000000     0          
O        O      0.717700000000     0.467350000000     0.972350000000     0          
O        O      0.925750000000     0.311850000000     0.921350000000     0          
O        O      0.984600000000     0.306150000000     0.922050000000     0          
O        O      0.954550000000     0.282300000000     0.844325000000     0          
O        O      0.957750000000     0.375000000000     0.871525000000     0          
O        O      0.926200000000     0.284200000000     0.761675000000     0          
O        O      0.911250000000     0.375000000000     0.989025000000     0          
O        O      0.875000000000     0.301650000000     0.968225000000     0          
O        O      0.514600000000     0.375000000000     0.967825000000     0          
O        O      0.982900000000     0.310200000000     0.766175000000     0          
O        O      0.532300000000     0.282650000000     0.972350000000     0          
O        O      0.925750000000     0.438150000000     0.921350000000     0          
O        O      0.984600000000     0.443850000000     0.922050000000     0          
O        O      0.954550000000     0.467700000000     0.844325000000     0          
O        O      0.926200000000     0.465800000000     0.761675000000     0          
O        O      0.982900000000     0.439800000000     0.766175000000     0          
O        O      0.532300000000     0.467350000000     0.972350000000     0          
O        O      0.824250000000     0.311850000000     0.921350000000     0          
O        O      0.765400000000     0.306150000000     0.922050000000     0          
O        O      0.795450000000     0.282300000000     0.844325000000     0          
O        O      0.823800000000     0.284200000000     0.761675000000     0          
O        O      0.767100000000     0.310200000000     0.766175000000     0          
O        O      0.717700000000     0.282650000000     0.972350000000     0          
O        O      0.675750000000     0.061850000000     0.828650000000     0          
O        O      0.734600000000     0.056150000000     0.827950000000     0          
O        O      0.704550000000     0.032300000000     0.905675000000     0          
O        O      0.676200000000     0.034200000000     0.988325000000     0          
O        O      0.732900000000     0.060200000000     0.983825000000     0          
O        O      0.782300000000     0.032650000000     0.777650000000     0          
O        O      0.574250000000     0.188150000000     0.828650000000     0          
O        O      0.515400000000     0.193850000000     0.827950000000     0          
O        O      0.545450000000     0.217700000000     0.905675000000     0          
O        O      0.573800000000     0.215800000000     0.988325000000     0          
O        O      0.517100000000     0.189800000000     0.983825000000     0          
O        O      0.967700000000     0.217350000000     0.777650000000     0          
O        O      0.574250000000     0.561850000000     0.078650000000     0          
O        O      0.515400000000     0.556150000000     0.077950000000     0          
O        O      0.545450000000     0.532300000000     0.155675000000     0          
O        O      0.542250000000     0.625000000000     0.128475000000     0          
O        O      0.573800000000     0.534200000000     0.238325000000     0          
O        O      0.588750000000     0.625000000000     0.010975000000     0          
O        O      0.625000000000     0.551650000000     0.031775000000     0          
O        O      0.985400000000     0.625000000000     0.032175000000     0          
O        O      0.517100000000     0.560200000000     0.233825000000     0          
O        O      0.967700000000     0.532650000000     0.027650000000     0          
O        O      0.675750000000     0.688150000000     0.078650000000     0          
O        O      0.734600000000     0.693850000000     0.077950000000     0          
O        O      0.704550000000     0.717700000000     0.155675000000     0          
O        O      0.707750000000     0.625000000000     0.128475000000     0          
O        O      0.676200000000     0.715800000000     0.238325000000     0          
O        O      0.661250000000     0.625000000000     0.010975000000     0          
O        O      0.625000000000     0.698350000000     0.031775000000     0          
O        O      0.764600000000     0.625000000000     0.032175000000     0          
O        O      0.732900000000     0.689800000000     0.233825000000     0          
O        O      0.782300000000     0.717350000000     0.027650000000     0          
O        O      0.824250000000     0.938150000000     0.171350000000     0          
O        O      0.765400000000     0.943850000000     0.172050000000     0          
O        O      0.795450000000     0.967700000000     0.094325000000     0          
O        O      0.792250000000     0.875000000000     0.121525000000     0          
O        O      0.823800000000     0.965800000000     0.011675000000     0          
O        O      0.838750000000     0.875000000000     0.239025000000     0          
O        O      0.875000000000     0.948350000000     0.218225000000     0          
O        O      0.735400000000     0.875000000000     0.217825000000     0          
O        O      0.767100000000     0.939800000000     0.016175000000     0          
O        O      0.717700000000     0.967350000000     0.222350000000     0          
O        O      0.925750000000     0.811850000000     0.171350000000     0          
O        O      0.984600000000     0.806150000000     0.172050000000     0          
O        O      0.954550000000     0.782300000000     0.094325000000     0          
O        O      0.957750000000     0.875000000000     0.121525000000     0          
O        O      0.926200000000     0.784200000000     0.011675000000     0          
O        O      0.911250000000     0.875000000000     0.239025000000     0          
O        O      0.875000000000     0.801650000000     0.218225000000     0          
O        O      0.514600000000     0.875000000000     0.217825000000     0          
O        O      0.982900000000     0.810200000000     0.016175000000     0          
O        O      0.532300000000     0.782650000000     0.222350000000     0          
O        O      0.925750000000     0.938150000000     0.171350000000     0          
O        O      0.984600000000     0.943850000000     0.172050000000     0          
O        O      0.954550000000     0.967700000000     0.094325000000     0          
O        O      0.926200000000     0.965800000000     0.011675000000     0          
O        O      0.982900000000     0.939800000000     0.016175000000     0          
O        O      0.532300000000     0.967350000000     0.222350000000     0          
O        O      0.824250000000     0.811850000000     0.171350000000     0          
O        O      0.765400000000     0.806150000000     0.172050000000     0          
O        O      0.795450000000     0.782300000000     0.094325000000     0          
O        O      0.823800000000     0.784200000000     0.011675000000     0          
O        O      0.767100000000     0.810200000000     0.016175000000     0          
O        O      0.717700000000     0.782650000000     0.222350000000     0          
O        O      0.675750000000     0.561850000000     0.078650000000     0          
O        O      0.734600000000     0.556150000000     0.077950000000     0          
O        O      0.704550000000     0.532300000000     0.155675000000     0          
O        O      0.676200000000     0.534200000000     0.238325000000     0          
O        O      0.732900000000     0.560200000000     0.233825000000     0          
O        O      0.782300000000     0.532650000000     0.027650000000     0          
O        O      0.574250000000     0.688150000000     0.078650000000     0          
O        O      0.515400000000     0.693850000000     0.077950000000     0          
O        O      0.545450000000     0.717700000000     0.155675000000     0          
O        O      0.573800000000     0.715800000000     0.238325000000     0          
O        O      0.517100000000     0.689800000000     0.233825000000     0          
O        O      0.967700000000     0.717350000000     0.027650000000     0          
O        O      0.574250000000     0.561850000000     0.328650000000     0          
O        O      0.515400000000     0.556150000000     0.327950000000     0          
O        O      0.545450000000     0.532300000000     0.405675000000     0          
O        O      0.542250000000     0.625000000000     0.378475000000     0          
O        O      0.573800000000     0.534200000000     0.488325000000     0          
O        O      0.588750000000     0.625000000000     0.260975000000     0          
O        O      0.625000000000     0.551650000000     0.281775000000     0          
O        O      0.985400000000     0.625000000000     0.282175000000     0          
O        O      0.517100000000     0.560200000000     0.483825000000     0          
O        O      0.967700000000     0.532650000000     0.277650000000     0          
O        O      0.675750000000     0.688150000000     0.328650000000     0          
O        O      0.734600000000     0.693850000000     0.327950000000     0          
O        O      0.704550000000     0.717700000000     0.405675000000     0          
O        O      0.707750000000     0.625000000000     0.378475000000     0          
O        O      0.676200000000     0.715800000000     0.488325000000     0          
O        O      0.661250000000     0.625000000000     0.260975000000     0          
O        O      0.625000000000     0.698350000000     0.281775000000     0          
O        O      0.764600000000     0.625000000000     0.282175000000     0          
O        O      0.732900000000     0.689800000000     0.483825000000     0          
O        O      0.782300000000     0.717350000000     0.277650000000     0          
O        O      0.824250000000     0.938150000000     0.421350000000     0          
O        O      0.765400000000     0.943850000000     0.422050000000     0          
O        O      0.795450000000     0.967700000000     0.344325000000     0          
O        O      0.792250000000     0.875000000000     0.371525000000     0          
O        O      0.823800000000     0.965800000000     0.261675000000     0          
O        O      0.838750000000     0.875000000000     0.489025000000     0          
O        O      0.875000000000     0.948350000000     0.468225000000     0          
O        O      0.735400000000     0.875000000000     0.467825000000     0          
O        O      0.767100000000     0.939800000000     0.266175000000     0          
O        O      0.717700000000     0.967350000000     0.472350000000     0          
O        O      0.925750000000     0.811850000000     0.421350000000     0          
O        O      0.984600000000     0.806150000000     0.422050000000     0          
O        O      0.954550000000     0.782300000000     0.344325000000     0          
O        O      0.957750000000     0.875000000000     0.371525000000     0          
O        O      0.926200000000     0.784200000000     0.261675000000     0          
O        O      0.911250000000     0.875000000000     0.489025000000     0          
O        O      0.875000000000     0.801650000000     0.468225000000     0          
O        O      0.514600000000     0.875000000000     0.467825000000     0          
O        O      0.982900000000     0.810200000000     0.266175000000     0          
O        O      0.532300000000     0.782650000000     0.472350000000     0          
O        O      0.925750000000     0.938150000000     0.421350000000     0          
O        O      0.984600000000     0.943850000000     0.422050000000     0          
O        O      0.954550000000     0.967700000000     0.344325000000     0          
O        O      0.926200000000     0.965800000000     0.261675000000     0          
O        O      0.982900000000     0.939800000000     0.266175000000     0          
O        O      0.532300000000     0.967350000000     0.472350000000     0          
O        O      0.824250000000     0.811850000000     0.421350000000     0          
O        O      0.765400000000     0.806150000000     0.422050000000     0          
O        O      0.795450000000     0.782300000000     0.344325000000     0          
O        O      0.823800000000     0.784200000000     0.261675000000     0          
O        O      0.767100000000     0.810200000000     0.266175000000     0          
O        O      0.717700000000     0.782650000000     0.472350000000     0          
O        O      0.675750000000     0.561850000000     0.328650000000     0          
O        O      0.734600000000     0.556150000000     0.327950000000     0          
O        O      0.704550000000     0.532300000000     0.405675000000     0          
O        O      0.676200000000     0.534200000000     0.488325000000     0          
O        O      0.732900000000     0.560200000000     0.483825000000     0          
O        O      0.782300000000     0.532650000000     0.277650000000     0          
O        O      0.574250000000     0.688150000000     0.328650000000     0          
O        O      0.515400000000     0.693850000000     0.327950000000     0          
O        O      0.545450000000     0.717700000000     0.405675000000     0          
O        O      0.573800000000     0.715800000000     0.488325000000     0          
O        O      0.517100000000     0.689800000000     0.483825000000     0          
O        O      0.967700000000     0.717350000000     0.277650000000     0          
O        O      0.574250000000     0.561850000000     0.578650000000     0          
O        O      0.515400000000     0.556150000000     0.577950000000     0          
O        O      0.545450000000     0.532300000000     0.655675000000     0          
O        O      0.542250000000     0.625000000000     0.628475000000     0          
O        O      0.573800000000     0.534200000000     0.738325000000     0          
O        O      0.588750000000     0.625000000000     0.510975000000     0          
O        O      0.625000000000     0.551650000000     0.531775000000     0          
O        O      0.985400000000     0.625000000000     0.532175000000     0          
O        O      0.517100000000     0.560200000000     0.733825000000     0          
O        O      0.967700000000     0.532650000000     0.527650000000     0          
O        O      0.675750000000     0.688150000000     0.578650000000     0          
O        O      0.734600000000     0.693850000000     0.577950000000     0          
O        O      0.704550000000     0.717700000000     0.655675000000     0          
O        O      0.707750000000     0.625000000000     0.628475000000     0          
O        O      0.676200000000     0.715800000000     0.738325000000     0          
O        O      0.661250000000     0.625000000000     0.510975000000     0          
O        O      0.625000000000     0.698350000000     0.531775000000     0          
O        O      0.764600000000     0.625000000000     0.532175000000     0          
O        O      0.732900000000     0.689800000000     0.733825000000     0          
O        O      0.782300000000     0.717350000000     0.527650000000     0          
O        O      0.824250000000     0.938150000000     0.671350000000     0          
O        O      0.765400000000     0.943850000000     0.672050000000     0          
O        O      0.795450000000     0.967700000000     0.594325000000     0          
O        O      0.792250000000     0.875000000000     0.621525000000     0          
O        O      0.823800000000     0.965800000000     0.511675000000     0          
O        O      0.838750000000     0.875000000000     0.739025000000     0          
O        O      0.875000000000     0.948350000000     0.718225000000     0          
O        O      0.735400000000     0.875000000000     0.717825000000     0          
O        O      0.767100000000     0.939800000000     0.516175000000     0          
O        O      0.717700000000     0.967350000000     0.722350000000     0          
O        O      0.925750000000     0.811850000000     0.671350000000     0          
O        O      0.984600000000     0.806150000000     0.672050000000     0          
O        O      0.954550000000     0.782300000000     0.594325000000     0          
O        O      0.957750000000     0.875000000000     0.621525000000     0          
O        O      0.926200000000     0.784200000000     0.511675000000     0          
O        O      0.911250000000     0.875000000000     0.739025000000     0          
O        O      0.875000000000     0.801650000000     0.718225000000     0          
O        O      0.514600000000     0.875000000000     0.717825000000     0          
O        O      0.982900000000     0.810200000000     0.516175000000     0          
O        O      0.532300000000     0.782650000000     0.722350000000     0          
O        O      0.925750000000     0.938150000000     0.671350000000     0          
O        O      0.984600000000     0.943850000000     0.672050000000     0          
O        O      0.954550000000     0.967700000000     0.594325000000     0          
O        O      0.926200000000     0.965800000000     0.511675000000     0          
O        O      0.982900000000     0.939800000000     0.516175000000     0          
O        O      0.532300000000     0.967350000000     0.722350000000     0          
O        O      0.824250000000     0.811850000000     0.671350000000     0          
O        O      0.765400000000     0.806150000000     0.672050000000     0          
O        O      0.795450000000     0.782300000000     0.594325000000     0          
O        O      0.823800000000     0.784200000000     0.511675000000     0          
O        O      0.767100000000     0.810200000000     0.516175000000     0          
O        O      0.717700000000     0.782650000000     0.722350000000     0          
O        O      0.675750000000     0.561850000000     0.578650000000     0          
O        O      0.734600000000     0.556150000000     0.577950000000     0          
O        O      0.704550000000     0.532300000000     0.655675000000     0          
O        O      0.676200000000     0.534200000000     0.738325000000     0          
O        O      0.732900000000     0.560200000000     0.733825000000     0          
O        O      0.782300000000     0.532650000000     0.527650000000     0          
O        O      0.574250000000     0.688150000000     0.578650000000     0          
O        O      0.515400000000     0.693850000000     0.577950000000     0          
O        O      0.545450000000     0.717700000000     0.655675000000     0          
O        O      0.573800000000     0.715800000000     0.738325000000     0          
O        O      0.517100000000     0.689800000000     0.733825000000     0          
O        O      0.967700000000     0.717350000000     0.527650000000     0          
O        O      0.574250000000     0.561850000000     0.828650000000     0          
O        O      0.515400000000     0.556150000000     0.827950000000     0          
O        O      0.545450000000     0.532300000000     0.905675000000     0          
O        O      0.542250000000     0.625000000000     0.878475000000     0          
O        O      0.573800000000     0.534200000000     0.988325000000     0          
O        O      0.588750000000     0.625000000000     0.760975000000     0          
O        O      0.625000000000     0.551650000000     0.781775000000     0          
O        O      0.985400000000     0.625000000000     0.782175000000     0          
O        O      0.517100000000     0.560200000000     0.983825000000     0          
O        O      0.967700000000     0.532650000000     0.777650000000     0          
O        O      0.675750000000     0.688150000000     0.828650000000     0          
O        O      0.734600000000     0.693850000000     0.827950000000     0          
O        O      0.704550000000     0.717700000000     0.905675000000     0          
O        O      0.707750000000     0.625000000000     0.878475000000     0          
O        O      0.676200000000     0.715800000000     0.988325000000     0          
O        O      0.661250000000     0.625000000000     0.760975000000     0          
O        O      0.625000000000     0.698350000000     0.781775000000     0          
O        O      0.764600000000     0.625000000000     0.782175000000     0          
O        O      0.732900000000     0.689800000000     0.983825000000     0          
O        O      0.782300000000     0.717350000000     0.777650000000     0          
O        O      0.824250000000     0.938150000000     0.921350000000     0          
O        O      0.765400000000     0.943850000000     0.922050000000     0          
O        O      0.795450000000     0.967700000000     0.844325000000     0          
O        O      0.792250000000     0.875000000000     0.871525000000     0          
O        O      0.823800000000     0.965800000000     0.761675000000     0          
O        O      0.838750000000     0.875000000000     0.989025000000     0          
O        O      0.875000000000     0.948350000000     0.968225000000     0          
O        O      0.735400000000     0.875000000000     0.967825000000     0          
O        O      0.767100000000     0.939800000000     0.766175000000     0          
O        O      0.717700000000     0.967350000000     0.972350000000     0          
O        O      0.925750000000     0.811850000000     0.921350000000     0          
O        O      0.984600000000     0.806150000000     0.922050000000     0          
O        O      0.954550000000     0.782300000000     0.844325000000     0          
O        O      0.957750000000     0.875000000000     0.871525000000     0          
O        O      0.926200000000     0.784200000000     0.761675000000     0          
O        O      0.911250000000     0.875000000000     0.989025000000     0          
O        O      0.875000000000     0.801650000000     0.968225000000     0          
O        O      0.514600000000     0.875000000000     0.967825000000     0          
O        O      0.982900000000     0.810200000000     0.766175000000     0          
O        O      0.532300000000     0.782650000000     0.972350000000     0          
O        O      0.925750000000     0.938150000000     0.921350000000     0          
O        O      0.984600000000     0.943850000000     0.922050000000     0          
O        O      0.954550000000     0.967700000000     0.844325000000     0          
O        O      0.926200000000     0.965800000000     0.761675000000     0          
O        O      0.982900000000     0.939800000000     0.766175000000     0          
O        O      0.532300000000     0.967350000000     0.972350000000     0          
O        O      0.824250000000     0.811850000000     0.921350000000     0          
O        O      0.765400000000     0.806150000000     0.922050000000     0          
O        O      0.795450000000     0.782300000000     0.844325000000     0          
O        O      0.823800000000     0.784200000000     0.761675000000     0          
O        O      0.767100000000     0.810200000000     0.766175000000     0          
O        O      0.717700000000     0.782650000000     0.972350000000     0          
O        O      0.675750000000     0.561850000000     0.828650000000     0          
O        O      0.734600000000     0.556150000000     0.827950000000     0          
O        O      0.704550000000     0.532300000000     0.905675000000     0          
O        O      0.676200000000     0.534200000000     0.988325000000     0          
O        O      0.732900000000     0.560200000000     0.983825000000     0          
O        O      0.782300000000     0.532650000000     0.777650000000     0          
O        O      0.574250000000     0.688150000000     0.828650000000     0          
O        O      0.515400000000     0.693850000000     0.827950000000     0          
O        O      0.545450000000     0.717700000000     0.905675000000     0          
O        O      0.573800000000     0.715800000000     0.988325000000     0          
O        O      0.517100000000     0.689800000000     0.983825000000     0          
O        O      0.967700000000     0.717350000000     0.777650000000     0          


