data_zeolite

_audit_creation_method RASPA-1.0
_audit_creation_date 2021-6-8
_audit_author_name ''

_cell_length_a    14.39
_cell_length_b    14.39
_cell_length_c    25.198
_cell_angle_alpha 90
_cell_angle_beta  90
_cell_angle_gamma 120
_cell_volume      81337.5

_symmetry_cell_setting          hexagonal
_symmetry_space_group_name_Hall 'P 1'
_symmetry_space_group_name_H-M  'P 1'
_symmetry_Int_Tables_number     1

_symmetry_equiv_pos_as_xyz 'x,y,z'

loop_
_atom_site_label
_atom_site_type_symbol
_atom_site_fract_x
_atom_site_fract_y
_atom_site_fract_z
_atom_site_charge
T        Si     0.156533333333     0.078266666667     0.068500000000     0          
T        Si     0.139933333333     0.069966666667     0.172150000000     0          
T        Si     0.084666666667     0.042333333333     0.220050000000     0          
T        Si     0.130900000000     0.000000000000     0.080050000000     0          
T        Si     0.130900000000     0.000000000000     0.143800000000     0          
T        Si     0.222233333333     0.111100000000     0.031850000000     0          
T        Si     0.222233333333     0.111100000000     0.105050000000     0          
T        Si     0.222233333333     0.111100000000     0.168850000000     0          
T        Si     0.078266666667     0.156533333333     0.068500000000     0          
T        Si     0.069966666667     0.139933333333     0.172150000000     0          
T        Si     0.042333333333     0.084666666667     0.220050000000     0          
T        Si     0.130900000000     0.130900000000     0.080050000000     0          
T        Si     0.130900000000     0.130900000000     0.143800000000     0          
T        Si     0.111133333333     0.222233333333     0.031850000000     0          
T        Si     0.111133333333     0.222233333333     0.105050000000     0          
T        Si     0.111133333333     0.222233333333     0.168850000000     0          
T        Si     0.255066666667     0.078266666667     0.068500000000     0          
T        Si     0.263366666667     0.069966666667     0.172150000000     0          
T        Si     0.291000000000     0.042333333333     0.220050000000     0          
T        Si     0.000000000000     0.130900000000     0.080050000000     0          
T        Si     0.000000000000     0.130900000000     0.143800000000     0          
T        Si     0.176800000000     0.255066666667     0.068500000000     0          
T        Si     0.193400000000     0.263366666667     0.172150000000     0          
T        Si     0.248666666667     0.291000000000     0.220050000000     0          
T        Si     0.202433333333     0.000000000000     0.080050000000     0          
T        Si     0.202433333333     0.000000000000     0.143800000000     0          
T        Si     0.255066666667     0.176800000000     0.068500000000     0          
T        Si     0.263366666667     0.193400000000     0.172150000000     0          
T        Si     0.291000000000     0.248666666667     0.220050000000     0          
T        Si     0.202433333333     0.202433333333     0.080050000000     0          
T        Si     0.202433333333     0.202433333333     0.143800000000     0          
T        Si     0.078266666667     0.255066666667     0.068500000000     0          
T        Si     0.069966666667     0.263366666667     0.172150000000     0          
T        Si     0.042333333333     0.291000000000     0.220050000000     0          
T        Si     0.000000000000     0.202433333333     0.080050000000     0          
T        Si     0.000000000000     0.202433333333     0.143800000000     0          
T        Si     0.255066666667     0.176800000000     0.431500000000     0          
T        Si     0.263366666667     0.193400000000     0.327850000000     0          
T        Si     0.291000000000     0.248666666667     0.279950000000     0          
T        Si     0.000000000000     0.202433333333     0.419950000000     0          
T        Si     0.000000000000     0.202433333333     0.356200000000     0          
T        Si     0.222233333333     0.111100000000     0.468150000000     0          
T        Si     0.222233333333     0.111100000000     0.394950000000     0          
T        Si     0.222233333333     0.111100000000     0.331150000000     0          
T        Si     0.078266666667     0.255066666667     0.431500000000     0          
T        Si     0.069966666667     0.263366666667     0.327850000000     0          
T        Si     0.042333333333     0.291000000000     0.279950000000     0          
T        Si     0.130900000000     0.000000000000     0.419950000000     0          
T        Si     0.130900000000     0.000000000000     0.356200000000     0          
T        Si     0.111133333333     0.222233333333     0.468150000000     0          
T        Si     0.111133333333     0.222233333333     0.394950000000     0          
T        Si     0.111133333333     0.222233333333     0.331150000000     0          
T        Si     0.156533333333     0.078266666667     0.431500000000     0          
T        Si     0.139933333333     0.069966666667     0.327850000000     0          
T        Si     0.084666666667     0.042333333333     0.279950000000     0          
T        Si     0.130900000000     0.130900000000     0.419950000000     0          
T        Si     0.130900000000     0.130900000000     0.356200000000     0          
T        Si     0.078266666667     0.156533333333     0.431500000000     0          
T        Si     0.069966666667     0.139933333333     0.327850000000     0          
T        Si     0.042333333333     0.084666666667     0.279950000000     0          
T        Si     0.000000000000     0.130900000000     0.419950000000     0          
T        Si     0.000000000000     0.130900000000     0.356200000000     0          
T        Si     0.255066666667     0.078266666667     0.431500000000     0          
T        Si     0.263366666667     0.069966666667     0.327850000000     0          
T        Si     0.291000000000     0.042333333333     0.279950000000     0          
T        Si     0.202433333333     0.000000000000     0.419950000000     0          
T        Si     0.202433333333     0.000000000000     0.356200000000     0          
T        Si     0.176800000000     0.255066666667     0.431500000000     0          
T        Si     0.193400000000     0.263366666667     0.327850000000     0          
T        Si     0.248666666667     0.291000000000     0.279950000000     0          
T        Si     0.202433333333     0.202433333333     0.419950000000     0          
T        Si     0.202433333333     0.202433333333     0.356200000000     0          
T        Si     0.156533333333     0.078266666667     0.568500000000     0          
T        Si     0.139933333333     0.069966666667     0.672150000000     0          
T        Si     0.084666666667     0.042333333333     0.720050000000     0          
T        Si     0.130900000000     0.000000000000     0.580050000000     0          
T        Si     0.130900000000     0.000000000000     0.643800000000     0          
T        Si     0.222233333333     0.111100000000     0.531850000000     0          
T        Si     0.222233333333     0.111100000000     0.605050000000     0          
T        Si     0.222233333333     0.111100000000     0.668850000000     0          
T        Si     0.078266666667     0.156533333333     0.568500000000     0          
T        Si     0.069966666667     0.139933333333     0.672150000000     0          
T        Si     0.042333333333     0.084666666667     0.720050000000     0          
T        Si     0.130900000000     0.130900000000     0.580050000000     0          
T        Si     0.130900000000     0.130900000000     0.643800000000     0          
T        Si     0.111133333333     0.222233333333     0.531850000000     0          
T        Si     0.111133333333     0.222233333333     0.605050000000     0          
T        Si     0.111133333333     0.222233333333     0.668850000000     0          
T        Si     0.255066666667     0.078266666667     0.568500000000     0          
T        Si     0.263366666667     0.069966666667     0.672150000000     0          
T        Si     0.291000000000     0.042333333333     0.720050000000     0          
T        Si     0.000000000000     0.130900000000     0.580050000000     0          
T        Si     0.000000000000     0.130900000000     0.643800000000     0          
T        Si     0.176800000000     0.255066666667     0.568500000000     0          
T        Si     0.193400000000     0.263366666667     0.672150000000     0          
T        Si     0.248666666667     0.291000000000     0.720050000000     0          
T        Si     0.202433333333     0.000000000000     0.580050000000     0          
T        Si     0.202433333333     0.000000000000     0.643800000000     0          
T        Si     0.255066666667     0.176800000000     0.568500000000     0          
T        Si     0.263366666667     0.193400000000     0.672150000000     0          
T        Si     0.291000000000     0.248666666667     0.720050000000     0          
T        Si     0.202433333333     0.202433333333     0.580050000000     0          
T        Si     0.202433333333     0.202433333333     0.643800000000     0          
T        Si     0.078266666667     0.255066666667     0.568500000000     0          
T        Si     0.069966666667     0.263366666667     0.672150000000     0          
T        Si     0.042333333333     0.291000000000     0.720050000000     0          
T        Si     0.000000000000     0.202433333333     0.580050000000     0          
T        Si     0.000000000000     0.202433333333     0.643800000000     0          
T        Si     0.255066666667     0.176800000000     0.931500000000     0          
T        Si     0.263366666667     0.193400000000     0.827850000000     0          
T        Si     0.291000000000     0.248666666667     0.779950000000     0          
T        Si     0.000000000000     0.202433333333     0.919950000000     0          
T        Si     0.000000000000     0.202433333333     0.856200000000     0          
T        Si     0.222233333333     0.111100000000     0.968150000000     0          
T        Si     0.222233333333     0.111100000000     0.894950000000     0          
T        Si     0.222233333333     0.111100000000     0.831150000000     0          
T        Si     0.078266666667     0.255066666667     0.931500000000     0          
T        Si     0.069966666667     0.263366666667     0.827850000000     0          
T        Si     0.042333333333     0.291000000000     0.779950000000     0          
T        Si     0.130900000000     0.000000000000     0.919950000000     0          
T        Si     0.130900000000     0.000000000000     0.856200000000     0          
T        Si     0.111133333333     0.222233333333     0.968150000000     0          
T        Si     0.111133333333     0.222233333333     0.894950000000     0          
T        Si     0.111133333333     0.222233333333     0.831150000000     0          
T        Si     0.156533333333     0.078266666667     0.931500000000     0          
T        Si     0.139933333333     0.069966666667     0.827850000000     0          
T        Si     0.084666666667     0.042333333333     0.779950000000     0          
T        Si     0.130900000000     0.130900000000     0.919950000000     0          
T        Si     0.130900000000     0.130900000000     0.856200000000     0          
T        Si     0.078266666667     0.156533333333     0.931500000000     0          
T        Si     0.069966666667     0.139933333333     0.827850000000     0          
T        Si     0.042333333333     0.084666666667     0.779950000000     0          
T        Si     0.000000000000     0.130900000000     0.919950000000     0          
T        Si     0.000000000000     0.130900000000     0.856200000000     0          
T        Si     0.255066666667     0.078266666667     0.931500000000     0          
T        Si     0.263366666667     0.069966666667     0.827850000000     0          
T        Si     0.291000000000     0.042333333333     0.779950000000     0          
T        Si     0.202433333333     0.000000000000     0.919950000000     0          
T        Si     0.202433333333     0.000000000000     0.856200000000     0          
T        Si     0.176800000000     0.255066666667     0.931500000000     0          
T        Si     0.193400000000     0.263366666667     0.827850000000     0          
T        Si     0.248666666667     0.291000000000     0.779950000000     0          
T        Si     0.202433333333     0.202433333333     0.919950000000     0          
T        Si     0.202433333333     0.202433333333     0.856200000000     0          
T        Si     0.156533333333     0.411600000000     0.068500000000     0          
T        Si     0.139933333333     0.403300000000     0.172150000000     0          
T        Si     0.084666666667     0.375666666667     0.220050000000     0          
T        Si     0.130900000000     0.333333333333     0.080050000000     0          
T        Si     0.130900000000     0.333333333333     0.143800000000     0          
T        Si     0.222233333333     0.444433333333     0.031850000000     0          
T        Si     0.222233333333     0.444433333333     0.105050000000     0          
T        Si     0.222233333333     0.444433333333     0.168850000000     0          
T        Si     0.078266666667     0.489866666667     0.068500000000     0          
T        Si     0.069966666667     0.473266666667     0.172150000000     0          
T        Si     0.042333333333     0.418000000000     0.220050000000     0          
T        Si     0.130900000000     0.464233333333     0.080050000000     0          
T        Si     0.130900000000     0.464233333333     0.143800000000     0          
T        Si     0.111133333333     0.555566666667     0.031850000000     0          
T        Si     0.111133333333     0.555566666667     0.105050000000     0          
T        Si     0.111133333333     0.555566666667     0.168850000000     0          
T        Si     0.255066666667     0.411600000000     0.068500000000     0          
T        Si     0.263366666667     0.403300000000     0.172150000000     0          
T        Si     0.291000000000     0.375666666667     0.220050000000     0          
T        Si     0.000000000000     0.464233333333     0.080050000000     0          
T        Si     0.000000000000     0.464233333333     0.143800000000     0          
T        Si     0.176800000000     0.588400000000     0.068500000000     0          
T        Si     0.193400000000     0.596700000000     0.172150000000     0          
T        Si     0.248666666667     0.624333333333     0.220050000000     0          
T        Si     0.202433333333     0.333333333333     0.080050000000     0          
T        Si     0.202433333333     0.333333333333     0.143800000000     0          
T        Si     0.255066666667     0.510133333333     0.068500000000     0          
T        Si     0.263366666667     0.526733333333     0.172150000000     0          
T        Si     0.291000000000     0.582000000000     0.220050000000     0          
T        Si     0.202433333333     0.535766666667     0.080050000000     0          
T        Si     0.202433333333     0.535766666667     0.143800000000     0          
T        Si     0.078266666667     0.588400000000     0.068500000000     0          
T        Si     0.069966666667     0.596700000000     0.172150000000     0          
T        Si     0.042333333333     0.624333333333     0.220050000000     0          
T        Si     0.000000000000     0.535766666667     0.080050000000     0          
T        Si     0.000000000000     0.535766666667     0.143800000000     0          
T        Si     0.255066666667     0.510133333333     0.431500000000     0          
T        Si     0.263366666667     0.526733333333     0.327850000000     0          
T        Si     0.291000000000     0.582000000000     0.279950000000     0          
T        Si     0.000000000000     0.535766666667     0.419950000000     0          
T        Si     0.000000000000     0.535766666667     0.356200000000     0          
T        Si     0.222233333333     0.444433333333     0.468150000000     0          
T        Si     0.222233333333     0.444433333333     0.394950000000     0          
T        Si     0.222233333333     0.444433333333     0.331150000000     0          
T        Si     0.078266666667     0.588400000000     0.431500000000     0          
T        Si     0.069966666667     0.596700000000     0.327850000000     0          
T        Si     0.042333333333     0.624333333333     0.279950000000     0          
T        Si     0.130900000000     0.333333333333     0.419950000000     0          
T        Si     0.130900000000     0.333333333333     0.356200000000     0          
T        Si     0.111133333333     0.555566666667     0.468150000000     0          
T        Si     0.111133333333     0.555566666667     0.394950000000     0          
T        Si     0.111133333333     0.555566666667     0.331150000000     0          
T        Si     0.156533333333     0.411600000000     0.431500000000     0          
T        Si     0.139933333333     0.403300000000     0.327850000000     0          
T        Si     0.084666666667     0.375666666667     0.279950000000     0          
T        Si     0.130900000000     0.464233333333     0.419950000000     0          
T        Si     0.130900000000     0.464233333333     0.356200000000     0          
T        Si     0.078266666667     0.489866666667     0.431500000000     0          
T        Si     0.069966666667     0.473266666667     0.327850000000     0          
T        Si     0.042333333333     0.418000000000     0.279950000000     0          
T        Si     0.000000000000     0.464233333333     0.419950000000     0          
T        Si     0.000000000000     0.464233333333     0.356200000000     0          
T        Si     0.255066666667     0.411600000000     0.431500000000     0          
T        Si     0.263366666667     0.403300000000     0.327850000000     0          
T        Si     0.291000000000     0.375666666667     0.279950000000     0          
T        Si     0.202433333333     0.333333333333     0.419950000000     0          
T        Si     0.202433333333     0.333333333333     0.356200000000     0          
T        Si     0.176800000000     0.588400000000     0.431500000000     0          
T        Si     0.193400000000     0.596700000000     0.327850000000     0          
T        Si     0.248666666667     0.624333333333     0.279950000000     0          
T        Si     0.202433333333     0.535766666667     0.419950000000     0          
T        Si     0.202433333333     0.535766666667     0.356200000000     0          
T        Si     0.156533333333     0.411600000000     0.568500000000     0          
T        Si     0.139933333333     0.403300000000     0.672150000000     0          
T        Si     0.084666666667     0.375666666667     0.720050000000     0          
T        Si     0.130900000000     0.333333333333     0.580050000000     0          
T        Si     0.130900000000     0.333333333333     0.643800000000     0          
T        Si     0.222233333333     0.444433333333     0.531850000000     0          
T        Si     0.222233333333     0.444433333333     0.605050000000     0          
T        Si     0.222233333333     0.444433333333     0.668850000000     0          
T        Si     0.078266666667     0.489866666667     0.568500000000     0          
T        Si     0.069966666667     0.473266666667     0.672150000000     0          
T        Si     0.042333333333     0.418000000000     0.720050000000     0          
T        Si     0.130900000000     0.464233333333     0.580050000000     0          
T        Si     0.130900000000     0.464233333333     0.643800000000     0          
T        Si     0.111133333333     0.555566666667     0.531850000000     0          
T        Si     0.111133333333     0.555566666667     0.605050000000     0          
T        Si     0.111133333333     0.555566666667     0.668850000000     0          
T        Si     0.255066666667     0.411600000000     0.568500000000     0          
T        Si     0.263366666667     0.403300000000     0.672150000000     0          
T        Si     0.291000000000     0.375666666667     0.720050000000     0          
T        Si     0.000000000000     0.464233333333     0.580050000000     0          
T        Si     0.000000000000     0.464233333333     0.643800000000     0          
T        Si     0.176800000000     0.588400000000     0.568500000000     0          
T        Si     0.193400000000     0.596700000000     0.672150000000     0          
T        Si     0.248666666667     0.624333333333     0.720050000000     0          
T        Si     0.202433333333     0.333333333333     0.580050000000     0          
T        Si     0.202433333333     0.333333333333     0.643800000000     0          
T        Si     0.255066666667     0.510133333333     0.568500000000     0          
T        Si     0.263366666667     0.526733333333     0.672150000000     0          
T        Si     0.291000000000     0.582000000000     0.720050000000     0          
T        Si     0.202433333333     0.535766666667     0.580050000000     0          
T        Si     0.202433333333     0.535766666667     0.643800000000     0          
T        Si     0.078266666667     0.588400000000     0.568500000000     0          
T        Si     0.069966666667     0.596700000000     0.672150000000     0          
T        Si     0.042333333333     0.624333333333     0.720050000000     0          
T        Si     0.000000000000     0.535766666667     0.580050000000     0          
T        Si     0.000000000000     0.535766666667     0.643800000000     0          
T        Si     0.255066666667     0.510133333333     0.931500000000     0          
T        Si     0.263366666667     0.526733333333     0.827850000000     0          
T        Si     0.291000000000     0.582000000000     0.779950000000     0          
T        Si     0.000000000000     0.535766666667     0.919950000000     0          
T        Si     0.000000000000     0.535766666667     0.856200000000     0          
T        Si     0.222233333333     0.444433333333     0.968150000000     0          
T        Si     0.222233333333     0.444433333333     0.894950000000     0          
T        Si     0.222233333333     0.444433333333     0.831150000000     0          
T        Si     0.078266666667     0.588400000000     0.931500000000     0          
T        Si     0.069966666667     0.596700000000     0.827850000000     0          
T        Si     0.042333333333     0.624333333333     0.779950000000     0          
T        Si     0.130900000000     0.333333333333     0.919950000000     0          
T        Si     0.130900000000     0.333333333333     0.856200000000     0          
T        Si     0.111133333333     0.555566666667     0.968150000000     0          
T        Si     0.111133333333     0.555566666667     0.894950000000     0          
T        Si     0.111133333333     0.555566666667     0.831150000000     0          
T        Si     0.156533333333     0.411600000000     0.931500000000     0          
T        Si     0.139933333333     0.403300000000     0.827850000000     0          
T        Si     0.084666666667     0.375666666667     0.779950000000     0          
T        Si     0.130900000000     0.464233333333     0.919950000000     0          
T        Si     0.130900000000     0.464233333333     0.856200000000     0          
T        Si     0.078266666667     0.489866666667     0.931500000000     0          
T        Si     0.069966666667     0.473266666667     0.827850000000     0          
T        Si     0.042333333333     0.418000000000     0.779950000000     0          
T        Si     0.000000000000     0.464233333333     0.919950000000     0          
T        Si     0.000000000000     0.464233333333     0.856200000000     0          
T        Si     0.255066666667     0.411600000000     0.931500000000     0          
T        Si     0.263366666667     0.403300000000     0.827850000000     0          
T        Si     0.291000000000     0.375666666667     0.779950000000     0          
T        Si     0.202433333333     0.333333333333     0.919950000000     0          
T        Si     0.202433333333     0.333333333333     0.856200000000     0          
T        Si     0.176800000000     0.588400000000     0.931500000000     0          
T        Si     0.193400000000     0.596700000000     0.827850000000     0          
T        Si     0.248666666667     0.624333333333     0.779950000000     0          
T        Si     0.202433333333     0.535766666667     0.919950000000     0          
T        Si     0.202433333333     0.535766666667     0.856200000000     0          
T        Si     0.156533333333     0.744933333333     0.068500000000     0          
T        Si     0.139933333333     0.736633333333     0.172150000000     0          
T        Si     0.084666666667     0.709000000000     0.220050000000     0          
T        Si     0.130900000000     0.666666666667     0.080050000000     0          
T        Si     0.130900000000     0.666666666667     0.143800000000     0          
T        Si     0.222233333333     0.777766666667     0.031850000000     0          
T        Si     0.222233333333     0.777766666667     0.105050000000     0          
T        Si     0.222233333333     0.777766666667     0.168850000000     0          
T        Si     0.078266666667     0.823200000000     0.068500000000     0          
T        Si     0.069966666667     0.806600000000     0.172150000000     0          
T        Si     0.042333333333     0.751333333333     0.220050000000     0          
T        Si     0.130900000000     0.797566666667     0.080050000000     0          
T        Si     0.130900000000     0.797566666667     0.143800000000     0          
T        Si     0.111133333333     0.888900000000     0.031850000000     0          
T        Si     0.111133333333     0.888900000000     0.105050000000     0          
T        Si     0.111133333333     0.888900000000     0.168850000000     0          
T        Si     0.255066666667     0.744933333333     0.068500000000     0          
T        Si     0.263366666667     0.736633333333     0.172150000000     0          
T        Si     0.291000000000     0.709000000000     0.220050000000     0          
T        Si     0.000000000000     0.797566666667     0.080050000000     0          
T        Si     0.000000000000     0.797566666667     0.143800000000     0          
T        Si     0.176800000000     0.921733333333     0.068500000000     0          
T        Si     0.193400000000     0.930033333333     0.172150000000     0          
T        Si     0.248666666667     0.957666666667     0.220050000000     0          
T        Si     0.202433333333     0.666666666667     0.080050000000     0          
T        Si     0.202433333333     0.666666666667     0.143800000000     0          
T        Si     0.255066666667     0.843466666667     0.068500000000     0          
T        Si     0.263366666667     0.860066666667     0.172150000000     0          
T        Si     0.291000000000     0.915333333333     0.220050000000     0          
T        Si     0.202433333333     0.869100000000     0.080050000000     0          
T        Si     0.202433333333     0.869100000000     0.143800000000     0          
T        Si     0.078266666667     0.921733333333     0.068500000000     0          
T        Si     0.069966666667     0.930033333333     0.172150000000     0          
T        Si     0.042333333333     0.957666666667     0.220050000000     0          
T        Si     0.000000000000     0.869100000000     0.080050000000     0          
T        Si     0.000000000000     0.869100000000     0.143800000000     0          
T        Si     0.255066666667     0.843466666667     0.431500000000     0          
T        Si     0.263366666667     0.860066666667     0.327850000000     0          
T        Si     0.291000000000     0.915333333333     0.279950000000     0          
T        Si     0.000000000000     0.869100000000     0.419950000000     0          
T        Si     0.000000000000     0.869100000000     0.356200000000     0          
T        Si     0.222233333333     0.777766666667     0.468150000000     0          
T        Si     0.222233333333     0.777766666667     0.394950000000     0          
T        Si     0.222233333333     0.777766666667     0.331150000000     0          
T        Si     0.078266666667     0.921733333333     0.431500000000     0          
T        Si     0.069966666667     0.930033333333     0.327850000000     0          
T        Si     0.042333333333     0.957666666667     0.279950000000     0          
T        Si     0.130900000000     0.666666666667     0.419950000000     0          
T        Si     0.130900000000     0.666666666667     0.356200000000     0          
T        Si     0.111133333333     0.888900000000     0.468150000000     0          
T        Si     0.111133333333     0.888900000000     0.394950000000     0          
T        Si     0.111133333333     0.888900000000     0.331150000000     0          
T        Si     0.156533333333     0.744933333333     0.431500000000     0          
T        Si     0.139933333333     0.736633333333     0.327850000000     0          
T        Si     0.084666666667     0.709000000000     0.279950000000     0          
T        Si     0.130900000000     0.797566666667     0.419950000000     0          
T        Si     0.130900000000     0.797566666667     0.356200000000     0          
T        Si     0.078266666667     0.823200000000     0.431500000000     0          
T        Si     0.069966666667     0.806600000000     0.327850000000     0          
T        Si     0.042333333333     0.751333333333     0.279950000000     0          
T        Si     0.000000000000     0.797566666667     0.419950000000     0          
T        Si     0.000000000000     0.797566666667     0.356200000000     0          
T        Si     0.255066666667     0.744933333333     0.431500000000     0          
T        Si     0.263366666667     0.736633333333     0.327850000000     0          
T        Si     0.291000000000     0.709000000000     0.279950000000     0          
T        Si     0.202433333333     0.666666666667     0.419950000000     0          
T        Si     0.202433333333     0.666666666667     0.356200000000     0          
T        Si     0.176800000000     0.921733333333     0.431500000000     0          
T        Si     0.193400000000     0.930033333333     0.327850000000     0          
T        Si     0.248666666667     0.957666666667     0.279950000000     0          
T        Si     0.202433333333     0.869100000000     0.419950000000     0          
T        Si     0.202433333333     0.869100000000     0.356200000000     0          
T        Si     0.156533333333     0.744933333333     0.568500000000     0          
T        Si     0.139933333333     0.736633333333     0.672150000000     0          
T        Si     0.084666666667     0.709000000000     0.720050000000     0          
T        Si     0.130900000000     0.666666666667     0.580050000000     0          
T        Si     0.130900000000     0.666666666667     0.643800000000     0          
T        Si     0.222233333333     0.777766666667     0.531850000000     0          
T        Si     0.222233333333     0.777766666667     0.605050000000     0          
T        Si     0.222233333333     0.777766666667     0.668850000000     0          
T        Si     0.078266666667     0.823200000000     0.568500000000     0          
T        Si     0.069966666667     0.806600000000     0.672150000000     0          
T        Si     0.042333333333     0.751333333333     0.720050000000     0          
T        Si     0.130900000000     0.797566666667     0.580050000000     0          
T        Si     0.130900000000     0.797566666667     0.643800000000     0          
T        Si     0.111133333333     0.888900000000     0.531850000000     0          
T        Si     0.111133333333     0.888900000000     0.605050000000     0          
T        Si     0.111133333333     0.888900000000     0.668850000000     0          
T        Si     0.255066666667     0.744933333333     0.568500000000     0          
T        Si     0.263366666667     0.736633333333     0.672150000000     0          
T        Si     0.291000000000     0.709000000000     0.720050000000     0          
T        Si     0.000000000000     0.797566666667     0.580050000000     0          
T        Si     0.000000000000     0.797566666667     0.643800000000     0          
T        Si     0.176800000000     0.921733333333     0.568500000000     0          
T        Si     0.193400000000     0.930033333333     0.672150000000     0          
T        Si     0.248666666667     0.957666666667     0.720050000000     0          
T        Si     0.202433333333     0.666666666667     0.580050000000     0          
T        Si     0.202433333333     0.666666666667     0.643800000000     0          
T        Si     0.255066666667     0.843466666667     0.568500000000     0          
T        Si     0.263366666667     0.860066666667     0.672150000000     0          
T        Si     0.291000000000     0.915333333333     0.720050000000     0          
T        Si     0.202433333333     0.869100000000     0.580050000000     0          
T        Si     0.202433333333     0.869100000000     0.643800000000     0          
T        Si     0.078266666667     0.921733333333     0.568500000000     0          
T        Si     0.069966666667     0.930033333333     0.672150000000     0          
T        Si     0.042333333333     0.957666666667     0.720050000000     0          
T        Si     0.000000000000     0.869100000000     0.580050000000     0          
T        Si     0.000000000000     0.869100000000     0.643800000000     0          
T        Si     0.255066666667     0.843466666667     0.931500000000     0          
T        Si     0.263366666667     0.860066666667     0.827850000000     0          
T        Si     0.291000000000     0.915333333333     0.779950000000     0          
T        Si     0.000000000000     0.869100000000     0.919950000000     0          
T        Si     0.000000000000     0.869100000000     0.856200000000     0          
T        Si     0.222233333333     0.777766666667     0.968150000000     0          
T        Si     0.222233333333     0.777766666667     0.894950000000     0          
T        Si     0.222233333333     0.777766666667     0.831150000000     0          
T        Si     0.078266666667     0.921733333333     0.931500000000     0          
T        Si     0.069966666667     0.930033333333     0.827850000000     0          
T        Si     0.042333333333     0.957666666667     0.779950000000     0          
T        Si     0.130900000000     0.666666666667     0.919950000000     0          
T        Si     0.130900000000     0.666666666667     0.856200000000     0          
T        Si     0.111133333333     0.888900000000     0.968150000000     0          
T        Si     0.111133333333     0.888900000000     0.894950000000     0          
T        Si     0.111133333333     0.888900000000     0.831150000000     0          
T        Si     0.156533333333     0.744933333333     0.931500000000     0          
T        Si     0.139933333333     0.736633333333     0.827850000000     0          
T        Si     0.084666666667     0.709000000000     0.779950000000     0          
T        Si     0.130900000000     0.797566666667     0.919950000000     0          
T        Si     0.130900000000     0.797566666667     0.856200000000     0          
T        Si     0.078266666667     0.823200000000     0.931500000000     0          
T        Si     0.069966666667     0.806600000000     0.827850000000     0          
T        Si     0.042333333333     0.751333333333     0.779950000000     0          
T        Si     0.000000000000     0.797566666667     0.919950000000     0          
T        Si     0.000000000000     0.797566666667     0.856200000000     0          
T        Si     0.255066666667     0.744933333333     0.931500000000     0          
T        Si     0.263366666667     0.736633333333     0.827850000000     0          
T        Si     0.291000000000     0.709000000000     0.779950000000     0          
T        Si     0.202433333333     0.666666666667     0.919950000000     0          
T        Si     0.202433333333     0.666666666667     0.856200000000     0          
T        Si     0.176800000000     0.921733333333     0.931500000000     0          
T        Si     0.193400000000     0.930033333333     0.827850000000     0          
T        Si     0.248666666667     0.957666666667     0.779950000000     0          
T        Si     0.202433333333     0.869100000000     0.919950000000     0          
T        Si     0.202433333333     0.869100000000     0.856200000000     0          
T        Si     0.489866666667     0.078266666667     0.068500000000     0          
T        Si     0.473266666667     0.069966666667     0.172150000000     0          
T        Si     0.418000000000     0.042333333333     0.220050000000     0          
T        Si     0.464233333333     0.000000000000     0.080050000000     0          
T        Si     0.464233333333     0.000000000000     0.143800000000     0          
T        Si     0.555566666667     0.111100000000     0.031850000000     0          
T        Si     0.555566666667     0.111100000000     0.105050000000     0          
T        Si     0.555566666667     0.111100000000     0.168850000000     0          
T        Si     0.411600000000     0.156533333333     0.068500000000     0          
T        Si     0.403300000000     0.139933333333     0.172150000000     0          
T        Si     0.375666666667     0.084666666667     0.220050000000     0          
T        Si     0.464233333333     0.130900000000     0.080050000000     0          
T        Si     0.464233333333     0.130900000000     0.143800000000     0          
T        Si     0.444466666667     0.222233333333     0.031850000000     0          
T        Si     0.444466666667     0.222233333333     0.105050000000     0          
T        Si     0.444466666667     0.222233333333     0.168850000000     0          
T        Si     0.588400000000     0.078266666667     0.068500000000     0          
T        Si     0.596700000000     0.069966666667     0.172150000000     0          
T        Si     0.624333333333     0.042333333333     0.220050000000     0          
T        Si     0.333333333333     0.130900000000     0.080050000000     0          
T        Si     0.333333333333     0.130900000000     0.143800000000     0          
T        Si     0.510133333333     0.255066666667     0.068500000000     0          
T        Si     0.526733333333     0.263366666667     0.172150000000     0          
T        Si     0.582000000000     0.291000000000     0.220050000000     0          
T        Si     0.535766666667     0.000000000000     0.080050000000     0          
T        Si     0.535766666667     0.000000000000     0.143800000000     0          
T        Si     0.588400000000     0.176800000000     0.068500000000     0          
T        Si     0.596700000000     0.193400000000     0.172150000000     0          
T        Si     0.624333333333     0.248666666667     0.220050000000     0          
T        Si     0.535766666667     0.202433333333     0.080050000000     0          
T        Si     0.535766666667     0.202433333333     0.143800000000     0          
T        Si     0.411600000000     0.255066666667     0.068500000000     0          
T        Si     0.403300000000     0.263366666667     0.172150000000     0          
T        Si     0.375666666667     0.291000000000     0.220050000000     0          
T        Si     0.333333333333     0.202433333333     0.080050000000     0          
T        Si     0.333333333333     0.202433333333     0.143800000000     0          
T        Si     0.588400000000     0.176800000000     0.431500000000     0          
T        Si     0.596700000000     0.193400000000     0.327850000000     0          
T        Si     0.624333333333     0.248666666667     0.279950000000     0          
T        Si     0.333333333333     0.202433333333     0.419950000000     0          
T        Si     0.333333333333     0.202433333333     0.356200000000     0          
T        Si     0.555566666667     0.111100000000     0.468150000000     0          
T        Si     0.555566666667     0.111100000000     0.394950000000     0          
T        Si     0.555566666667     0.111100000000     0.331150000000     0          
T        Si     0.411600000000     0.255066666667     0.431500000000     0          
T        Si     0.403300000000     0.263366666667     0.327850000000     0          
T        Si     0.375666666667     0.291000000000     0.279950000000     0          
T        Si     0.464233333333     0.000000000000     0.419950000000     0          
T        Si     0.464233333333     0.000000000000     0.356200000000     0          
T        Si     0.444466666667     0.222233333333     0.468150000000     0          
T        Si     0.444466666667     0.222233333333     0.394950000000     0          
T        Si     0.444466666667     0.222233333333     0.331150000000     0          
T        Si     0.489866666667     0.078266666667     0.431500000000     0          
T        Si     0.473266666667     0.069966666667     0.327850000000     0          
T        Si     0.418000000000     0.042333333333     0.279950000000     0          
T        Si     0.464233333333     0.130900000000     0.419950000000     0          
T        Si     0.464233333333     0.130900000000     0.356200000000     0          
T        Si     0.411600000000     0.156533333333     0.431500000000     0          
T        Si     0.403300000000     0.139933333333     0.327850000000     0          
T        Si     0.375666666667     0.084666666667     0.279950000000     0          
T        Si     0.333333333333     0.130900000000     0.419950000000     0          
T        Si     0.333333333333     0.130900000000     0.356200000000     0          
T        Si     0.588400000000     0.078266666667     0.431500000000     0          
T        Si     0.596700000000     0.069966666667     0.327850000000     0          
T        Si     0.624333333333     0.042333333333     0.279950000000     0          
T        Si     0.535766666667     0.000000000000     0.419950000000     0          
T        Si     0.535766666667     0.000000000000     0.356200000000     0          
T        Si     0.510133333333     0.255066666667     0.431500000000     0          
T        Si     0.526733333333     0.263366666667     0.327850000000     0          
T        Si     0.582000000000     0.291000000000     0.279950000000     0          
T        Si     0.535766666667     0.202433333333     0.419950000000     0          
T        Si     0.535766666667     0.202433333333     0.356200000000     0          
T        Si     0.489866666667     0.078266666667     0.568500000000     0          
T        Si     0.473266666667     0.069966666667     0.672150000000     0          
T        Si     0.418000000000     0.042333333333     0.720050000000     0          
T        Si     0.464233333333     0.000000000000     0.580050000000     0          
T        Si     0.464233333333     0.000000000000     0.643800000000     0          
T        Si     0.555566666667     0.111100000000     0.531850000000     0          
T        Si     0.555566666667     0.111100000000     0.605050000000     0          
T        Si     0.555566666667     0.111100000000     0.668850000000     0          
T        Si     0.411600000000     0.156533333333     0.568500000000     0          
T        Si     0.403300000000     0.139933333333     0.672150000000     0          
T        Si     0.375666666667     0.084666666667     0.720050000000     0          
T        Si     0.464233333333     0.130900000000     0.580050000000     0          
T        Si     0.464233333333     0.130900000000     0.643800000000     0          
T        Si     0.444466666667     0.222233333333     0.531850000000     0          
T        Si     0.444466666667     0.222233333333     0.605050000000     0          
T        Si     0.444466666667     0.222233333333     0.668850000000     0          
T        Si     0.588400000000     0.078266666667     0.568500000000     0          
T        Si     0.596700000000     0.069966666667     0.672150000000     0          
T        Si     0.624333333333     0.042333333333     0.720050000000     0          
T        Si     0.333333333333     0.130900000000     0.580050000000     0          
T        Si     0.333333333333     0.130900000000     0.643800000000     0          
T        Si     0.510133333333     0.255066666667     0.568500000000     0          
T        Si     0.526733333333     0.263366666667     0.672150000000     0          
T        Si     0.582000000000     0.291000000000     0.720050000000     0          
T        Si     0.535766666667     0.000000000000     0.580050000000     0          
T        Si     0.535766666667     0.000000000000     0.643800000000     0          
T        Si     0.588400000000     0.176800000000     0.568500000000     0          
T        Si     0.596700000000     0.193400000000     0.672150000000     0          
T        Si     0.624333333333     0.248666666667     0.720050000000     0          
T        Si     0.535766666667     0.202433333333     0.580050000000     0          
T        Si     0.535766666667     0.202433333333     0.643800000000     0          
T        Si     0.411600000000     0.255066666667     0.568500000000     0          
T        Si     0.403300000000     0.263366666667     0.672150000000     0          
T        Si     0.375666666667     0.291000000000     0.720050000000     0          
T        Si     0.333333333333     0.202433333333     0.580050000000     0          
T        Si     0.333333333333     0.202433333333     0.643800000000     0          
T        Si     0.588400000000     0.176800000000     0.931500000000     0          
T        Si     0.596700000000     0.193400000000     0.827850000000     0          
T        Si     0.624333333333     0.248666666667     0.779950000000     0          
T        Si     0.333333333333     0.202433333333     0.919950000000     0          
T        Si     0.333333333333     0.202433333333     0.856200000000     0          
T        Si     0.555566666667     0.111100000000     0.968150000000     0          
T        Si     0.555566666667     0.111100000000     0.894950000000     0          
T        Si     0.555566666667     0.111100000000     0.831150000000     0          
T        Si     0.411600000000     0.255066666667     0.931500000000     0          
T        Si     0.403300000000     0.263366666667     0.827850000000     0          
T        Si     0.375666666667     0.291000000000     0.779950000000     0          
T        Si     0.464233333333     0.000000000000     0.919950000000     0          
T        Si     0.464233333333     0.000000000000     0.856200000000     0          
T        Si     0.444466666667     0.222233333333     0.968150000000     0          
T        Si     0.444466666667     0.222233333333     0.894950000000     0          
T        Si     0.444466666667     0.222233333333     0.831150000000     0          
T        Si     0.489866666667     0.078266666667     0.931500000000     0          
T        Si     0.473266666667     0.069966666667     0.827850000000     0          
T        Si     0.418000000000     0.042333333333     0.779950000000     0          
T        Si     0.464233333333     0.130900000000     0.919950000000     0          
T        Si     0.464233333333     0.130900000000     0.856200000000     0          
T        Si     0.411600000000     0.156533333333     0.931500000000     0          
T        Si     0.403300000000     0.139933333333     0.827850000000     0          
T        Si     0.375666666667     0.084666666667     0.779950000000     0          
T        Si     0.333333333333     0.130900000000     0.919950000000     0          
T        Si     0.333333333333     0.130900000000     0.856200000000     0          
T        Si     0.588400000000     0.078266666667     0.931500000000     0          
T        Si     0.596700000000     0.069966666667     0.827850000000     0          
T        Si     0.624333333333     0.042333333333     0.779950000000     0          
T        Si     0.535766666667     0.000000000000     0.919950000000     0          
T        Si     0.535766666667     0.000000000000     0.856200000000     0          
T        Si     0.510133333333     0.255066666667     0.931500000000     0          
T        Si     0.526733333333     0.263366666667     0.827850000000     0          
T        Si     0.582000000000     0.291000000000     0.779950000000     0          
T        Si     0.535766666667     0.202433333333     0.919950000000     0          
T        Si     0.535766666667     0.202433333333     0.856200000000     0          
T        Si     0.489866666667     0.411600000000     0.068500000000     0          
T        Si     0.473266666667     0.403300000000     0.172150000000     0          
T        Si     0.418000000000     0.375666666667     0.220050000000     0          
T        Si     0.464233333333     0.333333333333     0.080050000000     0          
T        Si     0.464233333333     0.333333333333     0.143800000000     0          
T        Si     0.555566666667     0.444433333333     0.031850000000     0          
T        Si     0.555566666667     0.444433333333     0.105050000000     0          
T        Si     0.555566666667     0.444433333333     0.168850000000     0          
T        Si     0.411600000000     0.489866666667     0.068500000000     0          
T        Si     0.403300000000     0.473266666667     0.172150000000     0          
T        Si     0.375666666667     0.418000000000     0.220050000000     0          
T        Si     0.464233333333     0.464233333333     0.080050000000     0          
T        Si     0.464233333333     0.464233333333     0.143800000000     0          
T        Si     0.444466666667     0.555566666667     0.031850000000     0          
T        Si     0.444466666667     0.555566666667     0.105050000000     0          
T        Si     0.444466666667     0.555566666667     0.168850000000     0          
T        Si     0.588400000000     0.411600000000     0.068500000000     0          
T        Si     0.596700000000     0.403300000000     0.172150000000     0          
T        Si     0.624333333333     0.375666666667     0.220050000000     0          
T        Si     0.333333333333     0.464233333333     0.080050000000     0          
T        Si     0.333333333333     0.464233333333     0.143800000000     0          
T        Si     0.510133333333     0.588400000000     0.068500000000     0          
T        Si     0.526733333333     0.596700000000     0.172150000000     0          
T        Si     0.582000000000     0.624333333333     0.220050000000     0          
T        Si     0.535766666667     0.333333333333     0.080050000000     0          
T        Si     0.535766666667     0.333333333333     0.143800000000     0          
T        Si     0.588400000000     0.510133333333     0.068500000000     0          
T        Si     0.596700000000     0.526733333333     0.172150000000     0          
T        Si     0.624333333333     0.582000000000     0.220050000000     0          
T        Si     0.535766666667     0.535766666667     0.080050000000     0          
T        Si     0.535766666667     0.535766666667     0.143800000000     0          
T        Si     0.411600000000     0.588400000000     0.068500000000     0          
T        Si     0.403300000000     0.596700000000     0.172150000000     0          
T        Si     0.375666666667     0.624333333333     0.220050000000     0          
T        Si     0.333333333333     0.535766666667     0.080050000000     0          
T        Si     0.333333333333     0.535766666667     0.143800000000     0          
T        Si     0.588400000000     0.510133333333     0.431500000000     0          
T        Si     0.596700000000     0.526733333333     0.327850000000     0          
T        Si     0.624333333333     0.582000000000     0.279950000000     0          
T        Si     0.333333333333     0.535766666667     0.419950000000     0          
T        Si     0.333333333333     0.535766666667     0.356200000000     0          
T        Si     0.555566666667     0.444433333333     0.468150000000     0          
T        Si     0.555566666667     0.444433333333     0.394950000000     0          
T        Si     0.555566666667     0.444433333333     0.331150000000     0          
T        Si     0.411600000000     0.588400000000     0.431500000000     0          
T        Si     0.403300000000     0.596700000000     0.327850000000     0          
T        Si     0.375666666667     0.624333333333     0.279950000000     0          
T        Si     0.464233333333     0.333333333333     0.419950000000     0          
T        Si     0.464233333333     0.333333333333     0.356200000000     0          
T        Si     0.444466666667     0.555566666667     0.468150000000     0          
T        Si     0.444466666667     0.555566666667     0.394950000000     0          
T        Si     0.444466666667     0.555566666667     0.331150000000     0          
T        Si     0.489866666667     0.411600000000     0.431500000000     0          
T        Si     0.473266666667     0.403300000000     0.327850000000     0          
T        Si     0.418000000000     0.375666666667     0.279950000000     0          
T        Si     0.464233333333     0.464233333333     0.419950000000     0          
T        Si     0.464233333333     0.464233333333     0.356200000000     0          
T        Si     0.411600000000     0.489866666667     0.431500000000     0          
T        Si     0.403300000000     0.473266666667     0.327850000000     0          
T        Si     0.375666666667     0.418000000000     0.279950000000     0          
T        Si     0.333333333333     0.464233333333     0.419950000000     0          
T        Si     0.333333333333     0.464233333333     0.356200000000     0          
T        Si     0.588400000000     0.411600000000     0.431500000000     0          
T        Si     0.596700000000     0.403300000000     0.327850000000     0          
T        Si     0.624333333333     0.375666666667     0.279950000000     0          
T        Si     0.535766666667     0.333333333333     0.419950000000     0          
T        Si     0.535766666667     0.333333333333     0.356200000000     0          
T        Si     0.510133333333     0.588400000000     0.431500000000     0          
T        Si     0.526733333333     0.596700000000     0.327850000000     0          
T        Si     0.582000000000     0.624333333333     0.279950000000     0          
T        Si     0.535766666667     0.535766666667     0.419950000000     0          
T        Si     0.535766666667     0.535766666667     0.356200000000     0          
T        Si     0.489866666667     0.411600000000     0.568500000000     0          
T        Si     0.473266666667     0.403300000000     0.672150000000     0          
T        Si     0.418000000000     0.375666666667     0.720050000000     0          
T        Si     0.464233333333     0.333333333333     0.580050000000     0          
T        Si     0.464233333333     0.333333333333     0.643800000000     0          
T        Si     0.555566666667     0.444433333333     0.531850000000     0          
T        Si     0.555566666667     0.444433333333     0.605050000000     0          
T        Si     0.555566666667     0.444433333333     0.668850000000     0          
T        Si     0.411600000000     0.489866666667     0.568500000000     0          
T        Si     0.403300000000     0.473266666667     0.672150000000     0          
T        Si     0.375666666667     0.418000000000     0.720050000000     0          
T        Si     0.464233333333     0.464233333333     0.580050000000     0          
T        Si     0.464233333333     0.464233333333     0.643800000000     0          
T        Si     0.444466666667     0.555566666667     0.531850000000     0          
T        Si     0.444466666667     0.555566666667     0.605050000000     0          
T        Si     0.444466666667     0.555566666667     0.668850000000     0          
T        Si     0.588400000000     0.411600000000     0.568500000000     0          
T        Si     0.596700000000     0.403300000000     0.672150000000     0          
T        Si     0.624333333333     0.375666666667     0.720050000000     0          
T        Si     0.333333333333     0.464233333333     0.580050000000     0          
T        Si     0.333333333333     0.464233333333     0.643800000000     0          
T        Si     0.510133333333     0.588400000000     0.568500000000     0          
T        Si     0.526733333333     0.596700000000     0.672150000000     0          
T        Si     0.582000000000     0.624333333333     0.720050000000     0          
T        Si     0.535766666667     0.333333333333     0.580050000000     0          
T        Si     0.535766666667     0.333333333333     0.643800000000     0          
T        Si     0.588400000000     0.510133333333     0.568500000000     0          
T        Si     0.596700000000     0.526733333333     0.672150000000     0          
T        Si     0.624333333333     0.582000000000     0.720050000000     0          
T        Si     0.535766666667     0.535766666667     0.580050000000     0          
T        Si     0.535766666667     0.535766666667     0.643800000000     0          
T        Si     0.411600000000     0.588400000000     0.568500000000     0          
T        Si     0.403300000000     0.596700000000     0.672150000000     0          
T        Si     0.375666666667     0.624333333333     0.720050000000     0          
T        Si     0.333333333333     0.535766666667     0.580050000000     0          
T        Si     0.333333333333     0.535766666667     0.643800000000     0          
T        Si     0.588400000000     0.510133333333     0.931500000000     0          
T        Si     0.596700000000     0.526733333333     0.827850000000     0          
T        Si     0.624333333333     0.582000000000     0.779950000000     0          
T        Si     0.333333333333     0.535766666667     0.919950000000     0          
T        Si     0.333333333333     0.535766666667     0.856200000000     0          
T        Si     0.555566666667     0.444433333333     0.968150000000     0          
T        Si     0.555566666667     0.444433333333     0.894950000000     0          
T        Si     0.555566666667     0.444433333333     0.831150000000     0          
T        Si     0.411600000000     0.588400000000     0.931500000000     0          
T        Si     0.403300000000     0.596700000000     0.827850000000     0          
T        Si     0.375666666667     0.624333333333     0.779950000000     0          
T        Si     0.464233333333     0.333333333333     0.919950000000     0          
T        Si     0.464233333333     0.333333333333     0.856200000000     0          
T        Si     0.444466666667     0.555566666667     0.968150000000     0          
T        Si     0.444466666667     0.555566666667     0.894950000000     0          
T        Si     0.444466666667     0.555566666667     0.831150000000     0          
T        Si     0.489866666667     0.411600000000     0.931500000000     0          
T        Si     0.473266666667     0.403300000000     0.827850000000     0          
T        Si     0.418000000000     0.375666666667     0.779950000000     0          
T        Si     0.464233333333     0.464233333333     0.919950000000     0          
T        Si     0.464233333333     0.464233333333     0.856200000000     0          
T        Si     0.411600000000     0.489866666667     0.931500000000     0          
T        Si     0.403300000000     0.473266666667     0.827850000000     0          
T        Si     0.375666666667     0.418000000000     0.779950000000     0          
T        Si     0.333333333333     0.464233333333     0.919950000000     0          
T        Si     0.333333333333     0.464233333333     0.856200000000     0          
T        Si     0.588400000000     0.411600000000     0.931500000000     0          
T        Si     0.596700000000     0.403300000000     0.827850000000     0          
T        Si     0.624333333333     0.375666666667     0.779950000000     0          
T        Si     0.535766666667     0.333333333333     0.919950000000     0          
T        Si     0.535766666667     0.333333333333     0.856200000000     0          
T        Si     0.510133333333     0.588400000000     0.931500000000     0          
T        Si     0.526733333333     0.596700000000     0.827850000000     0          
T        Si     0.582000000000     0.624333333333     0.779950000000     0          
T        Si     0.535766666667     0.535766666667     0.919950000000     0          
T        Si     0.535766666667     0.535766666667     0.856200000000     0          
T        Si     0.489866666667     0.744933333333     0.068500000000     0          
T        Si     0.473266666667     0.736633333333     0.172150000000     0          
T        Si     0.418000000000     0.709000000000     0.220050000000     0          
T        Si     0.464233333333     0.666666666667     0.080050000000     0          
T        Si     0.464233333333     0.666666666667     0.143800000000     0          
T        Si     0.555566666667     0.777766666667     0.031850000000     0          
T        Si     0.555566666667     0.777766666667     0.105050000000     0          
T        Si     0.555566666667     0.777766666667     0.168850000000     0          
T        Si     0.411600000000     0.823200000000     0.068500000000     0          
T        Si     0.403300000000     0.806600000000     0.172150000000     0          
T        Si     0.375666666667     0.751333333333     0.220050000000     0          
T        Si     0.464233333333     0.797566666667     0.080050000000     0          
T        Si     0.464233333333     0.797566666667     0.143800000000     0          
T        Si     0.444466666667     0.888900000000     0.031850000000     0          
T        Si     0.444466666667     0.888900000000     0.105050000000     0          
T        Si     0.444466666667     0.888900000000     0.168850000000     0          
T        Si     0.588400000000     0.744933333333     0.068500000000     0          
T        Si     0.596700000000     0.736633333333     0.172150000000     0          
T        Si     0.624333333333     0.709000000000     0.220050000000     0          
T        Si     0.333333333333     0.797566666667     0.080050000000     0          
T        Si     0.333333333333     0.797566666667     0.143800000000     0          
T        Si     0.510133333333     0.921733333333     0.068500000000     0          
T        Si     0.526733333333     0.930033333333     0.172150000000     0          
T        Si     0.582000000000     0.957666666667     0.220050000000     0          
T        Si     0.535766666667     0.666666666667     0.080050000000     0          
T        Si     0.535766666667     0.666666666667     0.143800000000     0          
T        Si     0.588400000000     0.843466666667     0.068500000000     0          
T        Si     0.596700000000     0.860066666667     0.172150000000     0          
T        Si     0.624333333333     0.915333333333     0.220050000000     0          
T        Si     0.535766666667     0.869100000000     0.080050000000     0          
T        Si     0.535766666667     0.869100000000     0.143800000000     0          
T        Si     0.411600000000     0.921733333333     0.068500000000     0          
T        Si     0.403300000000     0.930033333333     0.172150000000     0          
T        Si     0.375666666667     0.957666666667     0.220050000000     0          
T        Si     0.333333333333     0.869100000000     0.080050000000     0          
T        Si     0.333333333333     0.869100000000     0.143800000000     0          
T        Si     0.588400000000     0.843466666667     0.431500000000     0          
T        Si     0.596700000000     0.860066666667     0.327850000000     0          
T        Si     0.624333333333     0.915333333333     0.279950000000     0          
T        Si     0.333333333333     0.869100000000     0.419950000000     0          
T        Si     0.333333333333     0.869100000000     0.356200000000     0          
T        Si     0.555566666667     0.777766666667     0.468150000000     0          
T        Si     0.555566666667     0.777766666667     0.394950000000     0          
T        Si     0.555566666667     0.777766666667     0.331150000000     0          
T        Si     0.411600000000     0.921733333333     0.431500000000     0          
T        Si     0.403300000000     0.930033333333     0.327850000000     0          
T        Si     0.375666666667     0.957666666667     0.279950000000     0          
T        Si     0.464233333333     0.666666666667     0.419950000000     0          
T        Si     0.464233333333     0.666666666667     0.356200000000     0          
T        Si     0.444466666667     0.888900000000     0.468150000000     0          
T        Si     0.444466666667     0.888900000000     0.394950000000     0          
T        Si     0.444466666667     0.888900000000     0.331150000000     0          
T        Si     0.489866666667     0.744933333333     0.431500000000     0          
T        Si     0.473266666667     0.736633333333     0.327850000000     0          
T        Si     0.418000000000     0.709000000000     0.279950000000     0          
T        Si     0.464233333333     0.797566666667     0.419950000000     0          
T        Si     0.464233333333     0.797566666667     0.356200000000     0          
T        Si     0.411600000000     0.823200000000     0.431500000000     0          
T        Si     0.403300000000     0.806600000000     0.327850000000     0          
T        Si     0.375666666667     0.751333333333     0.279950000000     0          
T        Si     0.333333333333     0.797566666667     0.419950000000     0          
T        Si     0.333333333333     0.797566666667     0.356200000000     0          
T        Si     0.588400000000     0.744933333333     0.431500000000     0          
T        Si     0.596700000000     0.736633333333     0.327850000000     0          
T        Si     0.624333333333     0.709000000000     0.279950000000     0          
T        Si     0.535766666667     0.666666666667     0.419950000000     0          
T        Si     0.535766666667     0.666666666667     0.356200000000     0          
T        Si     0.510133333333     0.921733333333     0.431500000000     0          
T        Si     0.526733333333     0.930033333333     0.327850000000     0          
T        Si     0.582000000000     0.957666666667     0.279950000000     0          
T        Si     0.535766666667     0.869100000000     0.419950000000     0          
T        Si     0.535766666667     0.869100000000     0.356200000000     0          
T        Si     0.489866666667     0.744933333333     0.568500000000     0          
T        Si     0.473266666667     0.736633333333     0.672150000000     0          
T        Si     0.418000000000     0.709000000000     0.720050000000     0          
T        Si     0.464233333333     0.666666666667     0.580050000000     0          
T        Si     0.464233333333     0.666666666667     0.643800000000     0          
T        Si     0.555566666667     0.777766666667     0.531850000000     0          
T        Si     0.555566666667     0.777766666667     0.605050000000     0          
T        Si     0.555566666667     0.777766666667     0.668850000000     0          
T        Si     0.411600000000     0.823200000000     0.568500000000     0          
T        Si     0.403300000000     0.806600000000     0.672150000000     0          
T        Si     0.375666666667     0.751333333333     0.720050000000     0          
T        Si     0.464233333333     0.797566666667     0.580050000000     0          
T        Si     0.464233333333     0.797566666667     0.643800000000     0          
T        Si     0.444466666667     0.888900000000     0.531850000000     0          
T        Si     0.444466666667     0.888900000000     0.605050000000     0          
T        Si     0.444466666667     0.888900000000     0.668850000000     0          
T        Si     0.588400000000     0.744933333333     0.568500000000     0          
T        Si     0.596700000000     0.736633333333     0.672150000000     0          
T        Si     0.624333333333     0.709000000000     0.720050000000     0          
T        Si     0.333333333333     0.797566666667     0.580050000000     0          
T        Si     0.333333333333     0.797566666667     0.643800000000     0          
T        Si     0.510133333333     0.921733333333     0.568500000000     0          
T        Si     0.526733333333     0.930033333333     0.672150000000     0          
T        Si     0.582000000000     0.957666666667     0.720050000000     0          
T        Si     0.535766666667     0.666666666667     0.580050000000     0          
T        Si     0.535766666667     0.666666666667     0.643800000000     0          
T        Si     0.588400000000     0.843466666667     0.568500000000     0          
T        Si     0.596700000000     0.860066666667     0.672150000000     0          
T        Si     0.624333333333     0.915333333333     0.720050000000     0          
T        Si     0.535766666667     0.869100000000     0.580050000000     0          
T        Si     0.535766666667     0.869100000000     0.643800000000     0          
T        Si     0.411600000000     0.921733333333     0.568500000000     0          
T        Si     0.403300000000     0.930033333333     0.672150000000     0          
T        Si     0.375666666667     0.957666666667     0.720050000000     0          
T        Si     0.333333333333     0.869100000000     0.580050000000     0          
T        Si     0.333333333333     0.869100000000     0.643800000000     0          
T        Si     0.588400000000     0.843466666667     0.931500000000     0          
T        Si     0.596700000000     0.860066666667     0.827850000000     0          
T        Si     0.624333333333     0.915333333333     0.779950000000     0          
T        Si     0.333333333333     0.869100000000     0.919950000000     0          
T        Si     0.333333333333     0.869100000000     0.856200000000     0          
T        Si     0.555566666667     0.777766666667     0.968150000000     0          
T        Si     0.555566666667     0.777766666667     0.894950000000     0          
T        Si     0.555566666667     0.777766666667     0.831150000000     0          
T        Si     0.411600000000     0.921733333333     0.931500000000     0          
T        Si     0.403300000000     0.930033333333     0.827850000000     0          
T        Si     0.375666666667     0.957666666667     0.779950000000     0          
T        Si     0.464233333333     0.666666666667     0.919950000000     0          
T        Si     0.464233333333     0.666666666667     0.856200000000     0          
T        Si     0.444466666667     0.888900000000     0.968150000000     0          
T        Si     0.444466666667     0.888900000000     0.894950000000     0          
T        Si     0.444466666667     0.888900000000     0.831150000000     0          
T        Si     0.489866666667     0.744933333333     0.931500000000     0          
T        Si     0.473266666667     0.736633333333     0.827850000000     0          
T        Si     0.418000000000     0.709000000000     0.779950000000     0          
T        Si     0.464233333333     0.797566666667     0.919950000000     0          
T        Si     0.464233333333     0.797566666667     0.856200000000     0          
T        Si     0.411600000000     0.823200000000     0.931500000000     0          
T        Si     0.403300000000     0.806600000000     0.827850000000     0          
T        Si     0.375666666667     0.751333333333     0.779950000000     0          
T        Si     0.333333333333     0.797566666667     0.919950000000     0          
T        Si     0.333333333333     0.797566666667     0.856200000000     0          
T        Si     0.588400000000     0.744933333333     0.931500000000     0          
T        Si     0.596700000000     0.736633333333     0.827850000000     0          
T        Si     0.624333333333     0.709000000000     0.779950000000     0          
T        Si     0.535766666667     0.666666666667     0.919950000000     0          
T        Si     0.535766666667     0.666666666667     0.856200000000     0          
T        Si     0.510133333333     0.921733333333     0.931500000000     0          
T        Si     0.526733333333     0.930033333333     0.827850000000     0          
T        Si     0.582000000000     0.957666666667     0.779950000000     0          
T        Si     0.535766666667     0.869100000000     0.919950000000     0          
T        Si     0.535766666667     0.869100000000     0.856200000000     0          
T        Si     0.823200000000     0.078266666667     0.068500000000     0          
T        Si     0.806600000000     0.069966666667     0.172150000000     0          
T        Si     0.751333333333     0.042333333333     0.220050000000     0          
T        Si     0.797566666667     0.000000000000     0.080050000000     0          
T        Si     0.797566666667     0.000000000000     0.143800000000     0          
T        Si     0.888900000000     0.111100000000     0.031850000000     0          
T        Si     0.888900000000     0.111100000000     0.105050000000     0          
T        Si     0.888900000000     0.111100000000     0.168850000000     0          
T        Si     0.744933333333     0.156533333333     0.068500000000     0          
T        Si     0.736633333333     0.139933333333     0.172150000000     0          
T        Si     0.709000000000     0.084666666667     0.220050000000     0          
T        Si     0.797566666667     0.130900000000     0.080050000000     0          
T        Si     0.797566666667     0.130900000000     0.143800000000     0          
T        Si     0.777800000000     0.222233333333     0.031850000000     0          
T        Si     0.777800000000     0.222233333333     0.105050000000     0          
T        Si     0.777800000000     0.222233333333     0.168850000000     0          
T        Si     0.921733333333     0.078266666667     0.068500000000     0          
T        Si     0.930033333333     0.069966666667     0.172150000000     0          
T        Si     0.957666666667     0.042333333333     0.220050000000     0          
T        Si     0.666666666667     0.130900000000     0.080050000000     0          
T        Si     0.666666666667     0.130900000000     0.143800000000     0          
T        Si     0.843466666667     0.255066666667     0.068500000000     0          
T        Si     0.860066666667     0.263366666667     0.172150000000     0          
T        Si     0.915333333333     0.291000000000     0.220050000000     0          
T        Si     0.869100000000     0.000000000000     0.080050000000     0          
T        Si     0.869100000000     0.000000000000     0.143800000000     0          
T        Si     0.921733333333     0.176800000000     0.068500000000     0          
T        Si     0.930033333333     0.193400000000     0.172150000000     0          
T        Si     0.957666666667     0.248666666667     0.220050000000     0          
T        Si     0.869100000000     0.202433333333     0.080050000000     0          
T        Si     0.869100000000     0.202433333333     0.143800000000     0          
T        Si     0.744933333333     0.255066666667     0.068500000000     0          
T        Si     0.736633333333     0.263366666667     0.172150000000     0          
T        Si     0.709000000000     0.291000000000     0.220050000000     0          
T        Si     0.666666666667     0.202433333333     0.080050000000     0          
T        Si     0.666666666667     0.202433333333     0.143800000000     0          
T        Si     0.921733333333     0.176800000000     0.431500000000     0          
T        Si     0.930033333333     0.193400000000     0.327850000000     0          
T        Si     0.957666666667     0.248666666667     0.279950000000     0          
T        Si     0.666666666667     0.202433333333     0.419950000000     0          
T        Si     0.666666666667     0.202433333333     0.356200000000     0          
T        Si     0.888900000000     0.111100000000     0.468150000000     0          
T        Si     0.888900000000     0.111100000000     0.394950000000     0          
T        Si     0.888900000000     0.111100000000     0.331150000000     0          
T        Si     0.744933333333     0.255066666667     0.431500000000     0          
T        Si     0.736633333333     0.263366666667     0.327850000000     0          
T        Si     0.709000000000     0.291000000000     0.279950000000     0          
T        Si     0.797566666667     0.000000000000     0.419950000000     0          
T        Si     0.797566666667     0.000000000000     0.356200000000     0          
T        Si     0.777800000000     0.222233333333     0.468150000000     0          
T        Si     0.777800000000     0.222233333333     0.394950000000     0          
T        Si     0.777800000000     0.222233333333     0.331150000000     0          
T        Si     0.823200000000     0.078266666667     0.431500000000     0          
T        Si     0.806600000000     0.069966666667     0.327850000000     0          
T        Si     0.751333333333     0.042333333333     0.279950000000     0          
T        Si     0.797566666667     0.130900000000     0.419950000000     0          
T        Si     0.797566666667     0.130900000000     0.356200000000     0          
T        Si     0.744933333333     0.156533333333     0.431500000000     0          
T        Si     0.736633333333     0.139933333333     0.327850000000     0          
T        Si     0.709000000000     0.084666666667     0.279950000000     0          
T        Si     0.666666666667     0.130900000000     0.419950000000     0          
T        Si     0.666666666667     0.130900000000     0.356200000000     0          
T        Si     0.921733333333     0.078266666667     0.431500000000     0          
T        Si     0.930033333333     0.069966666667     0.327850000000     0          
T        Si     0.957666666667     0.042333333333     0.279950000000     0          
T        Si     0.869100000000     0.000000000000     0.419950000000     0          
T        Si     0.869100000000     0.000000000000     0.356200000000     0          
T        Si     0.843466666667     0.255066666667     0.431500000000     0          
T        Si     0.860066666667     0.263366666667     0.327850000000     0          
T        Si     0.915333333333     0.291000000000     0.279950000000     0          
T        Si     0.869100000000     0.202433333333     0.419950000000     0          
T        Si     0.869100000000     0.202433333333     0.356200000000     0          
T        Si     0.823200000000     0.078266666667     0.568500000000     0          
T        Si     0.806600000000     0.069966666667     0.672150000000     0          
T        Si     0.751333333333     0.042333333333     0.720050000000     0          
T        Si     0.797566666667     0.000000000000     0.580050000000     0          
T        Si     0.797566666667     0.000000000000     0.643800000000     0          
T        Si     0.888900000000     0.111100000000     0.531850000000     0          
T        Si     0.888900000000     0.111100000000     0.605050000000     0          
T        Si     0.888900000000     0.111100000000     0.668850000000     0          
T        Si     0.744933333333     0.156533333333     0.568500000000     0          
T        Si     0.736633333333     0.139933333333     0.672150000000     0          
T        Si     0.709000000000     0.084666666667     0.720050000000     0          
T        Si     0.797566666667     0.130900000000     0.580050000000     0          
T        Si     0.797566666667     0.130900000000     0.643800000000     0          
T        Si     0.777800000000     0.222233333333     0.531850000000     0          
T        Si     0.777800000000     0.222233333333     0.605050000000     0          
T        Si     0.777800000000     0.222233333333     0.668850000000     0          
T        Si     0.921733333333     0.078266666667     0.568500000000     0          
T        Si     0.930033333333     0.069966666667     0.672150000000     0          
T        Si     0.957666666667     0.042333333333     0.720050000000     0          
T        Si     0.666666666667     0.130900000000     0.580050000000     0          
T        Si     0.666666666667     0.130900000000     0.643800000000     0          
T        Si     0.843466666667     0.255066666667     0.568500000000     0          
T        Si     0.860066666667     0.263366666667     0.672150000000     0          
T        Si     0.915333333333     0.291000000000     0.720050000000     0          
T        Si     0.869100000000     0.000000000000     0.580050000000     0          
T        Si     0.869100000000     0.000000000000     0.643800000000     0          
T        Si     0.921733333333     0.176800000000     0.568500000000     0          
T        Si     0.930033333333     0.193400000000     0.672150000000     0          
T        Si     0.957666666667     0.248666666667     0.720050000000     0          
T        Si     0.869100000000     0.202433333333     0.580050000000     0          
T        Si     0.869100000000     0.202433333333     0.643800000000     0          
T        Si     0.744933333333     0.255066666667     0.568500000000     0          
T        Si     0.736633333333     0.263366666667     0.672150000000     0          
T        Si     0.709000000000     0.291000000000     0.720050000000     0          
T        Si     0.666666666667     0.202433333333     0.580050000000     0          
T        Si     0.666666666667     0.202433333333     0.643800000000     0          
T        Si     0.921733333333     0.176800000000     0.931500000000     0          
T        Si     0.930033333333     0.193400000000     0.827850000000     0          
T        Si     0.957666666667     0.248666666667     0.779950000000     0          
T        Si     0.666666666667     0.202433333333     0.919950000000     0          
T        Si     0.666666666667     0.202433333333     0.856200000000     0          
T        Si     0.888900000000     0.111100000000     0.968150000000     0          
T        Si     0.888900000000     0.111100000000     0.894950000000     0          
T        Si     0.888900000000     0.111100000000     0.831150000000     0          
T        Si     0.744933333333     0.255066666667     0.931500000000     0          
T        Si     0.736633333333     0.263366666667     0.827850000000     0          
T        Si     0.709000000000     0.291000000000     0.779950000000     0          
T        Si     0.797566666667     0.000000000000     0.919950000000     0          
T        Si     0.797566666667     0.000000000000     0.856200000000     0          
T        Si     0.777800000000     0.222233333333     0.968150000000     0          
T        Si     0.777800000000     0.222233333333     0.894950000000     0          
T        Si     0.777800000000     0.222233333333     0.831150000000     0          
T        Si     0.823200000000     0.078266666667     0.931500000000     0          
T        Si     0.806600000000     0.069966666667     0.827850000000     0          
T        Si     0.751333333333     0.042333333333     0.779950000000     0          
T        Si     0.797566666667     0.130900000000     0.919950000000     0          
T        Si     0.797566666667     0.130900000000     0.856200000000     0          
T        Si     0.744933333333     0.156533333333     0.931500000000     0          
T        Si     0.736633333333     0.139933333333     0.827850000000     0          
T        Si     0.709000000000     0.084666666667     0.779950000000     0          
T        Si     0.666666666667     0.130900000000     0.919950000000     0          
T        Si     0.666666666667     0.130900000000     0.856200000000     0          
T        Si     0.921733333333     0.078266666667     0.931500000000     0          
T        Si     0.930033333333     0.069966666667     0.827850000000     0          
T        Si     0.957666666667     0.042333333333     0.779950000000     0          
T        Si     0.869100000000     0.000000000000     0.919950000000     0          
T        Si     0.869100000000     0.000000000000     0.856200000000     0          
T        Si     0.843466666667     0.255066666667     0.931500000000     0          
T        Si     0.860066666667     0.263366666667     0.827850000000     0          
T        Si     0.915333333333     0.291000000000     0.779950000000     0          
T        Si     0.869100000000     0.202433333333     0.919950000000     0          
T        Si     0.869100000000     0.202433333333     0.856200000000     0          
T        Si     0.823200000000     0.411600000000     0.068500000000     0          
T        Si     0.806600000000     0.403300000000     0.172150000000     0          
T        Si     0.751333333333     0.375666666667     0.220050000000     0          
T        Si     0.797566666667     0.333333333333     0.080050000000     0          
T        Si     0.797566666667     0.333333333333     0.143800000000     0          
T        Si     0.888900000000     0.444433333333     0.031850000000     0          
T        Si     0.888900000000     0.444433333333     0.105050000000     0          
T        Si     0.888900000000     0.444433333333     0.168850000000     0          
T        Si     0.744933333333     0.489866666667     0.068500000000     0          
T        Si     0.736633333333     0.473266666667     0.172150000000     0          
T        Si     0.709000000000     0.418000000000     0.220050000000     0          
T        Si     0.797566666667     0.464233333333     0.080050000000     0          
T        Si     0.797566666667     0.464233333333     0.143800000000     0          
T        Si     0.777800000000     0.555566666667     0.031850000000     0          
T        Si     0.777800000000     0.555566666667     0.105050000000     0          
T        Si     0.777800000000     0.555566666667     0.168850000000     0          
T        Si     0.921733333333     0.411600000000     0.068500000000     0          
T        Si     0.930033333333     0.403300000000     0.172150000000     0          
T        Si     0.957666666667     0.375666666667     0.220050000000     0          
T        Si     0.666666666667     0.464233333333     0.080050000000     0          
T        Si     0.666666666667     0.464233333333     0.143800000000     0          
T        Si     0.843466666667     0.588400000000     0.068500000000     0          
T        Si     0.860066666667     0.596700000000     0.172150000000     0          
T        Si     0.915333333333     0.624333333333     0.220050000000     0          
T        Si     0.869100000000     0.333333333333     0.080050000000     0          
T        Si     0.869100000000     0.333333333333     0.143800000000     0          
T        Si     0.921733333333     0.510133333333     0.068500000000     0          
T        Si     0.930033333333     0.526733333333     0.172150000000     0          
T        Si     0.957666666667     0.582000000000     0.220050000000     0          
T        Si     0.869100000000     0.535766666667     0.080050000000     0          
T        Si     0.869100000000     0.535766666667     0.143800000000     0          
T        Si     0.744933333333     0.588400000000     0.068500000000     0          
T        Si     0.736633333333     0.596700000000     0.172150000000     0          
T        Si     0.709000000000     0.624333333333     0.220050000000     0          
T        Si     0.666666666667     0.535766666667     0.080050000000     0          
T        Si     0.666666666667     0.535766666667     0.143800000000     0          
T        Si     0.921733333333     0.510133333333     0.431500000000     0          
T        Si     0.930033333333     0.526733333333     0.327850000000     0          
T        Si     0.957666666667     0.582000000000     0.279950000000     0          
T        Si     0.666666666667     0.535766666667     0.419950000000     0          
T        Si     0.666666666667     0.535766666667     0.356200000000     0          
T        Si     0.888900000000     0.444433333333     0.468150000000     0          
T        Si     0.888900000000     0.444433333333     0.394950000000     0          
T        Si     0.888900000000     0.444433333333     0.331150000000     0          
T        Si     0.744933333333     0.588400000000     0.431500000000     0          
T        Si     0.736633333333     0.596700000000     0.327850000000     0          
T        Si     0.709000000000     0.624333333333     0.279950000000     0          
T        Si     0.797566666667     0.333333333333     0.419950000000     0          
T        Si     0.797566666667     0.333333333333     0.356200000000     0          
T        Si     0.777800000000     0.555566666667     0.468150000000     0          
T        Si     0.777800000000     0.555566666667     0.394950000000     0          
T        Si     0.777800000000     0.555566666667     0.331150000000     0          
T        Si     0.823200000000     0.411600000000     0.431500000000     0          
T        Si     0.806600000000     0.403300000000     0.327850000000     0          
T        Si     0.751333333333     0.375666666667     0.279950000000     0          
T        Si     0.797566666667     0.464233333333     0.419950000000     0          
T        Si     0.797566666667     0.464233333333     0.356200000000     0          
T        Si     0.744933333333     0.489866666667     0.431500000000     0          
T        Si     0.736633333333     0.473266666667     0.327850000000     0          
T        Si     0.709000000000     0.418000000000     0.279950000000     0          
T        Si     0.666666666667     0.464233333333     0.419950000000     0          
T        Si     0.666666666667     0.464233333333     0.356200000000     0          
T        Si     0.921733333333     0.411600000000     0.431500000000     0          
T        Si     0.930033333333     0.403300000000     0.327850000000     0          
T        Si     0.957666666667     0.375666666667     0.279950000000     0          
T        Si     0.869100000000     0.333333333333     0.419950000000     0          
T        Si     0.869100000000     0.333333333333     0.356200000000     0          
T        Si     0.843466666667     0.588400000000     0.431500000000     0          
T        Si     0.860066666667     0.596700000000     0.327850000000     0          
T        Si     0.915333333333     0.624333333333     0.279950000000     0          
T        Si     0.869100000000     0.535766666667     0.419950000000     0          
T        Si     0.869100000000     0.535766666667     0.356200000000     0          
T        Si     0.823200000000     0.411600000000     0.568500000000     0          
T        Si     0.806600000000     0.403300000000     0.672150000000     0          
T        Si     0.751333333333     0.375666666667     0.720050000000     0          
T        Si     0.797566666667     0.333333333333     0.580050000000     0          
T        Si     0.797566666667     0.333333333333     0.643800000000     0          
T        Si     0.888900000000     0.444433333333     0.531850000000     0          
T        Si     0.888900000000     0.444433333333     0.605050000000     0          
T        Si     0.888900000000     0.444433333333     0.668850000000     0          
T        Si     0.744933333333     0.489866666667     0.568500000000     0          
T        Si     0.736633333333     0.473266666667     0.672150000000     0          
T        Si     0.709000000000     0.418000000000     0.720050000000     0          
T        Si     0.797566666667     0.464233333333     0.580050000000     0          
T        Si     0.797566666667     0.464233333333     0.643800000000     0          
T        Si     0.777800000000     0.555566666667     0.531850000000     0          
T        Si     0.777800000000     0.555566666667     0.605050000000     0          
T        Si     0.777800000000     0.555566666667     0.668850000000     0          
T        Si     0.921733333333     0.411600000000     0.568500000000     0          
T        Si     0.930033333333     0.403300000000     0.672150000000     0          
T        Si     0.957666666667     0.375666666667     0.720050000000     0          
T        Si     0.666666666667     0.464233333333     0.580050000000     0          
T        Si     0.666666666667     0.464233333333     0.643800000000     0          
T        Si     0.843466666667     0.588400000000     0.568500000000     0          
T        Si     0.860066666667     0.596700000000     0.672150000000     0          
T        Si     0.915333333333     0.624333333333     0.720050000000     0          
T        Si     0.869100000000     0.333333333333     0.580050000000     0          
T        Si     0.869100000000     0.333333333333     0.643800000000     0          
T        Si     0.921733333333     0.510133333333     0.568500000000     0          
T        Si     0.930033333333     0.526733333333     0.672150000000     0          
T        Si     0.957666666667     0.582000000000     0.720050000000     0          
T        Si     0.869100000000     0.535766666667     0.580050000000     0          
T        Si     0.869100000000     0.535766666667     0.643800000000     0          
T        Si     0.744933333333     0.588400000000     0.568500000000     0          
T        Si     0.736633333333     0.596700000000     0.672150000000     0          
T        Si     0.709000000000     0.624333333333     0.720050000000     0          
T        Si     0.666666666667     0.535766666667     0.580050000000     0          
T        Si     0.666666666667     0.535766666667     0.643800000000     0          
T        Si     0.921733333333     0.510133333333     0.931500000000     0          
T        Si     0.930033333333     0.526733333333     0.827850000000     0          
T        Si     0.957666666667     0.582000000000     0.779950000000     0          
T        Si     0.666666666667     0.535766666667     0.919950000000     0          
T        Si     0.666666666667     0.535766666667     0.856200000000     0          
T        Si     0.888900000000     0.444433333333     0.968150000000     0          
T        Si     0.888900000000     0.444433333333     0.894950000000     0          
T        Si     0.888900000000     0.444433333333     0.831150000000     0          
T        Si     0.744933333333     0.588400000000     0.931500000000     0          
T        Si     0.736633333333     0.596700000000     0.827850000000     0          
T        Si     0.709000000000     0.624333333333     0.779950000000     0          
T        Si     0.797566666667     0.333333333333     0.919950000000     0          
T        Si     0.797566666667     0.333333333333     0.856200000000     0          
T        Si     0.777800000000     0.555566666667     0.968150000000     0          
T        Si     0.777800000000     0.555566666667     0.894950000000     0          
T        Si     0.777800000000     0.555566666667     0.831150000000     0          
T        Si     0.823200000000     0.411600000000     0.931500000000     0          
T        Si     0.806600000000     0.403300000000     0.827850000000     0          
T        Si     0.751333333333     0.375666666667     0.779950000000     0          
T        Si     0.797566666667     0.464233333333     0.919950000000     0          
T        Si     0.797566666667     0.464233333333     0.856200000000     0          
T        Si     0.744933333333     0.489866666667     0.931500000000     0          
T        Si     0.736633333333     0.473266666667     0.827850000000     0          
T        Si     0.709000000000     0.418000000000     0.779950000000     0          
T        Si     0.666666666667     0.464233333333     0.919950000000     0          
T        Si     0.666666666667     0.464233333333     0.856200000000     0          
T        Si     0.921733333333     0.411600000000     0.931500000000     0          
T        Si     0.930033333333     0.403300000000     0.827850000000     0          
T        Si     0.957666666667     0.375666666667     0.779950000000     0          
T        Si     0.869100000000     0.333333333333     0.919950000000     0          
T        Si     0.869100000000     0.333333333333     0.856200000000     0          
T        Si     0.843466666667     0.588400000000     0.931500000000     0          
T        Si     0.860066666667     0.596700000000     0.827850000000     0          
T        Si     0.915333333333     0.624333333333     0.779950000000     0          
T        Si     0.869100000000     0.535766666667     0.919950000000     0          
T        Si     0.869100000000     0.535766666667     0.856200000000     0          
T        Si     0.823200000000     0.744933333333     0.068500000000     0          
T        Si     0.806600000000     0.736633333333     0.172150000000     0          
T        Si     0.751333333333     0.709000000000     0.220050000000     0          
T        Si     0.797566666667     0.666666666667     0.080050000000     0          
T        Si     0.797566666667     0.666666666667     0.143800000000     0          
T        Si     0.888900000000     0.777766666667     0.031850000000     0          
T        Si     0.888900000000     0.777766666667     0.105050000000     0          
T        Si     0.888900000000     0.777766666667     0.168850000000     0          
T        Si     0.744933333333     0.823200000000     0.068500000000     0          
T        Si     0.736633333333     0.806600000000     0.172150000000     0          
T        Si     0.709000000000     0.751333333333     0.220050000000     0          
T        Si     0.797566666667     0.797566666667     0.080050000000     0          
T        Si     0.797566666667     0.797566666667     0.143800000000     0          
T        Si     0.777800000000     0.888900000000     0.031850000000     0          
T        Si     0.777800000000     0.888900000000     0.105050000000     0          
T        Si     0.777800000000     0.888900000000     0.168850000000     0          
T        Si     0.921733333333     0.744933333333     0.068500000000     0          
T        Si     0.930033333333     0.736633333333     0.172150000000     0          
T        Si     0.957666666667     0.709000000000     0.220050000000     0          
T        Si     0.666666666667     0.797566666667     0.080050000000     0          
T        Si     0.666666666667     0.797566666667     0.143800000000     0          
T        Si     0.843466666667     0.921733333333     0.068500000000     0          
T        Si     0.860066666667     0.930033333333     0.172150000000     0          
T        Si     0.915333333333     0.957666666667     0.220050000000     0          
T        Si     0.869100000000     0.666666666667     0.080050000000     0          
T        Si     0.869100000000     0.666666666667     0.143800000000     0          
T        Si     0.921733333333     0.843466666667     0.068500000000     0          
T        Si     0.930033333333     0.860066666667     0.172150000000     0          
T        Si     0.957666666667     0.915333333333     0.220050000000     0          
T        Si     0.869100000000     0.869100000000     0.080050000000     0          
T        Si     0.869100000000     0.869100000000     0.143800000000     0          
T        Si     0.744933333333     0.921733333333     0.068500000000     0          
T        Si     0.736633333333     0.930033333333     0.172150000000     0          
T        Si     0.709000000000     0.957666666667     0.220050000000     0          
T        Si     0.666666666667     0.869100000000     0.080050000000     0          
T        Si     0.666666666667     0.869100000000     0.143800000000     0          
T        Si     0.921733333333     0.843466666667     0.431500000000     0          
T        Si     0.930033333333     0.860066666667     0.327850000000     0          
T        Si     0.957666666667     0.915333333333     0.279950000000     0          
T        Si     0.666666666667     0.869100000000     0.419950000000     0          
T        Si     0.666666666667     0.869100000000     0.356200000000     0          
T        Si     0.888900000000     0.777766666667     0.468150000000     0          
T        Si     0.888900000000     0.777766666667     0.394950000000     0          
T        Si     0.888900000000     0.777766666667     0.331150000000     0          
T        Si     0.744933333333     0.921733333333     0.431500000000     0          
T        Si     0.736633333333     0.930033333333     0.327850000000     0          
T        Si     0.709000000000     0.957666666667     0.279950000000     0          
T        Si     0.797566666667     0.666666666667     0.419950000000     0          
T        Si     0.797566666667     0.666666666667     0.356200000000     0          
T        Si     0.777800000000     0.888900000000     0.468150000000     0          
T        Si     0.777800000000     0.888900000000     0.394950000000     0          
T        Si     0.777800000000     0.888900000000     0.331150000000     0          
T        Si     0.823200000000     0.744933333333     0.431500000000     0          
T        Si     0.806600000000     0.736633333333     0.327850000000     0          
T        Si     0.751333333333     0.709000000000     0.279950000000     0          
T        Si     0.797566666667     0.797566666667     0.419950000000     0          
T        Si     0.797566666667     0.797566666667     0.356200000000     0          
T        Si     0.744933333333     0.823200000000     0.431500000000     0          
T        Si     0.736633333333     0.806600000000     0.327850000000     0          
T        Si     0.709000000000     0.751333333333     0.279950000000     0          
T        Si     0.666666666667     0.797566666667     0.419950000000     0          
T        Si     0.666666666667     0.797566666667     0.356200000000     0          
T        Si     0.921733333333     0.744933333333     0.431500000000     0          
T        Si     0.930033333333     0.736633333333     0.327850000000     0          
T        Si     0.957666666667     0.709000000000     0.279950000000     0          
T        Si     0.869100000000     0.666666666667     0.419950000000     0          
T        Si     0.869100000000     0.666666666667     0.356200000000     0          
T        Si     0.843466666667     0.921733333333     0.431500000000     0          
T        Si     0.860066666667     0.930033333333     0.327850000000     0          
T        Si     0.915333333333     0.957666666667     0.279950000000     0          
T        Si     0.869100000000     0.869100000000     0.419950000000     0          
T        Si     0.869100000000     0.869100000000     0.356200000000     0          
T        Si     0.823200000000     0.744933333333     0.568500000000     0          
T        Si     0.806600000000     0.736633333333     0.672150000000     0          
T        Si     0.751333333333     0.709000000000     0.720050000000     0          
T        Si     0.797566666667     0.666666666667     0.580050000000     0          
T        Si     0.797566666667     0.666666666667     0.643800000000     0          
T        Si     0.888900000000     0.777766666667     0.531850000000     0          
T        Si     0.888900000000     0.777766666667     0.605050000000     0          
T        Si     0.888900000000     0.777766666667     0.668850000000     0          
T        Si     0.744933333333     0.823200000000     0.568500000000     0          
T        Si     0.736633333333     0.806600000000     0.672150000000     0          
T        Si     0.709000000000     0.751333333333     0.720050000000     0          
T        Si     0.797566666667     0.797566666667     0.580050000000     0          
T        Si     0.797566666667     0.797566666667     0.643800000000     0          
T        Si     0.777800000000     0.888900000000     0.531850000000     0          
T        Si     0.777800000000     0.888900000000     0.605050000000     0          
T        Si     0.777800000000     0.888900000000     0.668850000000     0          
T        Si     0.921733333333     0.744933333333     0.568500000000     0          
T        Si     0.930033333333     0.736633333333     0.672150000000     0          
T        Si     0.957666666667     0.709000000000     0.720050000000     0          
T        Si     0.666666666667     0.797566666667     0.580050000000     0          
T        Si     0.666666666667     0.797566666667     0.643800000000     0          
T        Si     0.843466666667     0.921733333333     0.568500000000     0          
T        Si     0.860066666667     0.930033333333     0.672150000000     0          
T        Si     0.915333333333     0.957666666667     0.720050000000     0          
T        Si     0.869100000000     0.666666666667     0.580050000000     0          
T        Si     0.869100000000     0.666666666667     0.643800000000     0          
T        Si     0.921733333333     0.843466666667     0.568500000000     0          
T        Si     0.930033333333     0.860066666667     0.672150000000     0          
T        Si     0.957666666667     0.915333333333     0.720050000000     0          
T        Si     0.869100000000     0.869100000000     0.580050000000     0          
T        Si     0.869100000000     0.869100000000     0.643800000000     0          
T        Si     0.744933333333     0.921733333333     0.568500000000     0          
T        Si     0.736633333333     0.930033333333     0.672150000000     0          
T        Si     0.709000000000     0.957666666667     0.720050000000     0          
T        Si     0.666666666667     0.869100000000     0.580050000000     0          
T        Si     0.666666666667     0.869100000000     0.643800000000     0          
T        Si     0.921733333333     0.843466666667     0.931500000000     0          
T        Si     0.930033333333     0.860066666667     0.827850000000     0          
T        Si     0.957666666667     0.915333333333     0.779950000000     0          
T        Si     0.666666666667     0.869100000000     0.919950000000     0          
T        Si     0.666666666667     0.869100000000     0.856200000000     0          
T        Si     0.888900000000     0.777766666667     0.968150000000     0          
T        Si     0.888900000000     0.777766666667     0.894950000000     0          
T        Si     0.888900000000     0.777766666667     0.831150000000     0          
T        Si     0.744933333333     0.921733333333     0.931500000000     0          
T        Si     0.736633333333     0.930033333333     0.827850000000     0          
T        Si     0.709000000000     0.957666666667     0.779950000000     0          
T        Si     0.797566666667     0.666666666667     0.919950000000     0          
T        Si     0.797566666667     0.666666666667     0.856200000000     0          
T        Si     0.777800000000     0.888900000000     0.968150000000     0          
T        Si     0.777800000000     0.888900000000     0.894950000000     0          
T        Si     0.777800000000     0.888900000000     0.831150000000     0          
T        Si     0.823200000000     0.744933333333     0.931500000000     0          
T        Si     0.806600000000     0.736633333333     0.827850000000     0          
T        Si     0.751333333333     0.709000000000     0.779950000000     0          
T        Si     0.797566666667     0.797566666667     0.919950000000     0          
T        Si     0.797566666667     0.797566666667     0.856200000000     0          
T        Si     0.744933333333     0.823200000000     0.931500000000     0          
T        Si     0.736633333333     0.806600000000     0.827850000000     0          
T        Si     0.709000000000     0.751333333333     0.779950000000     0          
T        Si     0.666666666667     0.797566666667     0.919950000000     0          
T        Si     0.666666666667     0.797566666667     0.856200000000     0          
T        Si     0.921733333333     0.744933333333     0.931500000000     0          
T        Si     0.930033333333     0.736633333333     0.827850000000     0          
T        Si     0.957666666667     0.709000000000     0.779950000000     0          
T        Si     0.869100000000     0.666666666667     0.919950000000     0          
T        Si     0.869100000000     0.666666666667     0.856200000000     0          
T        Si     0.843466666667     0.921733333333     0.931500000000     0          
T        Si     0.860066666667     0.930033333333     0.827850000000     0          
T        Si     0.915333333333     0.957666666667     0.779950000000     0          
T        Si     0.869100000000     0.869100000000     0.919950000000     0          
T        Si     0.869100000000     0.869100000000     0.856200000000     0          
O        O      0.222233333333     0.111100000000     0.000000000000     0          
O        O      0.181600000000     0.090800000000     0.042500000000     0          
O        O      0.131766666667     0.035333333333     0.068700000000     0          
O        O      0.181566666667     0.090800000000     0.094500000000     0          
O        O      0.222233333333     0.111100000000     0.136950000000     0          
O        O      0.128966666667     0.000000000000     0.111900000000     0          
O        O      0.166666666667     0.000000000000     0.070950000000     0          
O        O      0.166666666667     0.000000000000     0.152900000000     0          
O        O      0.131166666667     0.035066666667     0.155050000000     0          
O        O      0.181766666667     0.090866666667     0.179650000000     0          
O        O      0.117333333333     0.058666666667     0.199300000000     0          
O        O      0.060700000000     0.000000000000     0.215100000000     0          
O        O      0.099633333333     0.049833333333     0.250000000000     0          
O        O      0.111133333333     0.222233333333     0.000000000000     0          
O        O      0.090800000000     0.181600000000     0.042500000000     0          
O        O      0.096433333333     0.131766666667     0.068700000000     0          
O        O      0.090766666667     0.181566666667     0.094500000000     0          
O        O      0.111133333333     0.222233333333     0.136950000000     0          
O        O      0.128966666667     0.128966666667     0.111900000000     0          
O        O      0.166666666667     0.166666666667     0.070950000000     0          
O        O      0.166666666667     0.166666666667     0.152900000000     0          
O        O      0.096100000000     0.131166666667     0.155050000000     0          
O        O      0.090900000000     0.181766666667     0.179650000000     0          
O        O      0.058666666667     0.117333333333     0.199300000000     0          
O        O      0.060700000000     0.060700000000     0.215100000000     0          
O        O      0.049800000000     0.099633333333     0.250000000000     0          
O        O      0.242533333333     0.090800000000     0.042500000000     0          
O        O      0.298000000000     0.096433333333     0.068700000000     0          
O        O      0.242533333333     0.090766666667     0.094500000000     0          
O        O      0.000000000000     0.128966666667     0.111900000000     0          
O        O      0.000000000000     0.166666666667     0.070950000000     0          
O        O      0.000000000000     0.166666666667     0.152900000000     0          
O        O      0.298266666667     0.096100000000     0.155050000000     0          
O        O      0.242466666667     0.090900000000     0.179650000000     0          
O        O      0.274666666667     0.058666666667     0.199300000000     0          
O        O      0.000000000000     0.060700000000     0.215100000000     0          
O        O      0.283500000000     0.049800000000     0.250000000000     0          
O        O      0.151733333333     0.242533333333     0.042500000000     0          
O        O      0.201566666667     0.298000000000     0.068700000000     0          
O        O      0.151766666667     0.242533333333     0.094500000000     0          
O        O      0.204366666667     0.000000000000     0.111900000000     0          
O        O      0.202166666667     0.298266666667     0.155050000000     0          
O        O      0.151566666667     0.242466666667     0.179650000000     0          
O        O      0.216000000000     0.274666666667     0.199300000000     0          
O        O      0.272633333333     0.000000000000     0.215100000000     0          
O        O      0.233700000000     0.283500000000     0.250000000000     0          
O        O      0.242533333333     0.151733333333     0.042500000000     0          
O        O      0.236900000000     0.201566666667     0.068700000000     0          
O        O      0.242566666667     0.151766666667     0.094500000000     0          
O        O      0.204366666667     0.204366666667     0.111900000000     0          
O        O      0.237233333333     0.202166666667     0.155050000000     0          
O        O      0.242433333333     0.151566666667     0.179650000000     0          
O        O      0.274666666667     0.216000000000     0.199300000000     0          
O        O      0.272633333333     0.272633333333     0.215100000000     0          
O        O      0.283533333333     0.233700000000     0.250000000000     0          
O        O      0.090800000000     0.242533333333     0.042500000000     0          
O        O      0.035333333333     0.236900000000     0.068700000000     0          
O        O      0.090800000000     0.242566666667     0.094500000000     0          
O        O      0.000000000000     0.204366666667     0.111900000000     0          
O        O      0.035066666667     0.237233333333     0.155050000000     0          
O        O      0.090866666667     0.242433333333     0.179650000000     0          
O        O      0.058666666667     0.274666666667     0.199300000000     0          
O        O      0.000000000000     0.272633333333     0.215100000000     0          
O        O      0.049833333333     0.283533333333     0.250000000000     0          
O        O      0.242533333333     0.151733333333     0.457500000000     0          
O        O      0.298000000000     0.201566666667     0.431300000000     0          
O        O      0.242533333333     0.151766666667     0.405500000000     0          
O        O      0.222233333333     0.111100000000     0.363050000000     0          
O        O      0.000000000000     0.204366666667     0.388100000000     0          
O        O      0.000000000000     0.166666666667     0.429050000000     0          
O        O      0.000000000000     0.166666666667     0.347100000000     0          
O        O      0.298266666667     0.202166666667     0.344950000000     0          
O        O      0.242466666667     0.151566666667     0.320350000000     0          
O        O      0.274666666667     0.216000000000     0.300700000000     0          
O        O      0.000000000000     0.272633333333     0.284900000000     0          
O        O      0.090800000000     0.242533333333     0.457500000000     0          
O        O      0.096433333333     0.298000000000     0.431300000000     0          
O        O      0.090766666667     0.242533333333     0.405500000000     0          
O        O      0.111133333333     0.222233333333     0.363050000000     0          
O        O      0.128966666667     0.000000000000     0.388100000000     0          
O        O      0.166666666667     0.000000000000     0.429050000000     0          
O        O      0.166666666667     0.000000000000     0.347100000000     0          
O        O      0.096100000000     0.298266666667     0.344950000000     0          
O        O      0.090900000000     0.242466666667     0.320350000000     0          
O        O      0.058666666667     0.274666666667     0.300700000000     0          
O        O      0.060700000000     0.000000000000     0.284900000000     0          
O        O      0.181600000000     0.090800000000     0.457500000000     0          
O        O      0.131766666667     0.096433333333     0.431300000000     0          
O        O      0.181566666667     0.090766666667     0.405500000000     0          
O        O      0.128966666667     0.128966666667     0.388100000000     0          
O        O      0.166666666667     0.166666666667     0.429050000000     0          
O        O      0.166666666667     0.166666666667     0.347100000000     0          
O        O      0.131166666667     0.096100000000     0.344950000000     0          
O        O      0.181766666667     0.090900000000     0.320350000000     0          
O        O      0.117333333333     0.058666666667     0.300700000000     0          
O        O      0.060700000000     0.060700000000     0.284900000000     0          
O        O      0.090800000000     0.181600000000     0.457500000000     0          
O        O      0.035333333333     0.131766666667     0.431300000000     0          
O        O      0.090800000000     0.181566666667     0.405500000000     0          
O        O      0.000000000000     0.128966666667     0.388100000000     0          
O        O      0.035066666667     0.131166666667     0.344950000000     0          
O        O      0.090866666667     0.181766666667     0.320350000000     0          
O        O      0.058666666667     0.117333333333     0.300700000000     0          
O        O      0.000000000000     0.060700000000     0.284900000000     0          
O        O      0.242533333333     0.090800000000     0.457500000000     0          
O        O      0.236900000000     0.035333333333     0.431300000000     0          
O        O      0.242566666667     0.090800000000     0.405500000000     0          
O        O      0.204366666667     0.000000000000     0.388100000000     0          
O        O      0.237233333333     0.035066666667     0.344950000000     0          
O        O      0.242433333333     0.090866666667     0.320350000000     0          
O        O      0.274666666667     0.058666666667     0.300700000000     0          
O        O      0.272633333333     0.000000000000     0.284900000000     0          
O        O      0.151733333333     0.242533333333     0.457500000000     0          
O        O      0.201566666667     0.236900000000     0.431300000000     0          
O        O      0.151766666667     0.242566666667     0.405500000000     0          
O        O      0.204366666667     0.204366666667     0.388100000000     0          
O        O      0.202166666667     0.237233333333     0.344950000000     0          
O        O      0.151566666667     0.242433333333     0.320350000000     0          
O        O      0.216000000000     0.274666666667     0.300700000000     0          
O        O      0.272633333333     0.272633333333     0.284900000000     0          
O        O      0.201566666667     0.298000000000     0.431300000000     0          
O        O      0.202166666667     0.298266666667     0.344950000000     0          
O        O      0.236900000000     0.201566666667     0.431300000000     0          
O        O      0.237233333333     0.202166666667     0.344950000000     0          
O        O      0.035333333333     0.236900000000     0.431300000000     0          
O        O      0.035066666667     0.237233333333     0.344950000000     0          
O        O      0.131766666667     0.035333333333     0.431300000000     0          
O        O      0.131166666667     0.035066666667     0.344950000000     0          
O        O      0.096433333333     0.131766666667     0.431300000000     0          
O        O      0.096100000000     0.131166666667     0.344950000000     0          
O        O      0.298000000000     0.096433333333     0.431300000000     0          
O        O      0.298266666667     0.096100000000     0.344950000000     0          
O        O      0.035333333333     0.131766666667     0.068700000000     0          
O        O      0.035066666667     0.131166666667     0.155050000000     0          
O        O      0.236900000000     0.035333333333     0.068700000000     0          
O        O      0.237233333333     0.035066666667     0.155050000000     0          
O        O      0.201566666667     0.236900000000     0.068700000000     0          
O        O      0.202166666667     0.237233333333     0.155050000000     0          
O        O      0.298000000000     0.201566666667     0.068700000000     0          
O        O      0.298266666667     0.202166666667     0.155050000000     0          
O        O      0.096433333333     0.298000000000     0.068700000000     0          
O        O      0.096100000000     0.298266666667     0.155050000000     0          
O        O      0.131766666667     0.096433333333     0.068700000000     0          
O        O      0.131166666667     0.096100000000     0.155050000000     0          
O        O      0.222233333333     0.111100000000     0.500000000000     0          
O        O      0.181600000000     0.090800000000     0.542500000000     0          
O        O      0.131766666667     0.035333333333     0.568700000000     0          
O        O      0.181566666667     0.090800000000     0.594500000000     0          
O        O      0.222233333333     0.111100000000     0.636950000000     0          
O        O      0.128966666667     0.000000000000     0.611900000000     0          
O        O      0.166666666667     0.000000000000     0.570950000000     0          
O        O      0.166666666667     0.000000000000     0.652900000000     0          
O        O      0.131166666667     0.035066666667     0.655050000000     0          
O        O      0.181766666667     0.090866666667     0.679650000000     0          
O        O      0.117333333333     0.058666666667     0.699300000000     0          
O        O      0.060700000000     0.000000000000     0.715100000000     0          
O        O      0.099633333333     0.049833333333     0.750000000000     0          
O        O      0.111133333333     0.222233333333     0.500000000000     0          
O        O      0.090800000000     0.181600000000     0.542500000000     0          
O        O      0.096433333333     0.131766666667     0.568700000000     0          
O        O      0.090766666667     0.181566666667     0.594500000000     0          
O        O      0.111133333333     0.222233333333     0.636950000000     0          
O        O      0.128966666667     0.128966666667     0.611900000000     0          
O        O      0.166666666667     0.166666666667     0.570950000000     0          
O        O      0.166666666667     0.166666666667     0.652900000000     0          
O        O      0.096100000000     0.131166666667     0.655050000000     0          
O        O      0.090900000000     0.181766666667     0.679650000000     0          
O        O      0.058666666667     0.117333333333     0.699300000000     0          
O        O      0.060700000000     0.060700000000     0.715100000000     0          
O        O      0.049800000000     0.099633333333     0.750000000000     0          
O        O      0.242533333333     0.090800000000     0.542500000000     0          
O        O      0.298000000000     0.096433333333     0.568700000000     0          
O        O      0.242533333333     0.090766666667     0.594500000000     0          
O        O      0.000000000000     0.128966666667     0.611900000000     0          
O        O      0.000000000000     0.166666666667     0.570950000000     0          
O        O      0.000000000000     0.166666666667     0.652900000000     0          
O        O      0.298266666667     0.096100000000     0.655050000000     0          
O        O      0.242466666667     0.090900000000     0.679650000000     0          
O        O      0.274666666667     0.058666666667     0.699300000000     0          
O        O      0.000000000000     0.060700000000     0.715100000000     0          
O        O      0.283500000000     0.049800000000     0.750000000000     0          
O        O      0.151733333333     0.242533333333     0.542500000000     0          
O        O      0.201566666667     0.298000000000     0.568700000000     0          
O        O      0.151766666667     0.242533333333     0.594500000000     0          
O        O      0.204366666667     0.000000000000     0.611900000000     0          
O        O      0.202166666667     0.298266666667     0.655050000000     0          
O        O      0.151566666667     0.242466666667     0.679650000000     0          
O        O      0.216000000000     0.274666666667     0.699300000000     0          
O        O      0.272633333333     0.000000000000     0.715100000000     0          
O        O      0.233700000000     0.283500000000     0.750000000000     0          
O        O      0.242533333333     0.151733333333     0.542500000000     0          
O        O      0.236900000000     0.201566666667     0.568700000000     0          
O        O      0.242566666667     0.151766666667     0.594500000000     0          
O        O      0.204366666667     0.204366666667     0.611900000000     0          
O        O      0.237233333333     0.202166666667     0.655050000000     0          
O        O      0.242433333333     0.151566666667     0.679650000000     0          
O        O      0.274666666667     0.216000000000     0.699300000000     0          
O        O      0.272633333333     0.272633333333     0.715100000000     0          
O        O      0.283533333333     0.233700000000     0.750000000000     0          
O        O      0.090800000000     0.242533333333     0.542500000000     0          
O        O      0.035333333333     0.236900000000     0.568700000000     0          
O        O      0.090800000000     0.242566666667     0.594500000000     0          
O        O      0.000000000000     0.204366666667     0.611900000000     0          
O        O      0.035066666667     0.237233333333     0.655050000000     0          
O        O      0.090866666667     0.242433333333     0.679650000000     0          
O        O      0.058666666667     0.274666666667     0.699300000000     0          
O        O      0.000000000000     0.272633333333     0.715100000000     0          
O        O      0.049833333333     0.283533333333     0.750000000000     0          
O        O      0.242533333333     0.151733333333     0.957500000000     0          
O        O      0.298000000000     0.201566666667     0.931300000000     0          
O        O      0.242533333333     0.151766666667     0.905500000000     0          
O        O      0.222233333333     0.111100000000     0.863050000000     0          
O        O      0.000000000000     0.204366666667     0.888100000000     0          
O        O      0.000000000000     0.166666666667     0.929050000000     0          
O        O      0.000000000000     0.166666666667     0.847100000000     0          
O        O      0.298266666667     0.202166666667     0.844950000000     0          
O        O      0.242466666667     0.151566666667     0.820350000000     0          
O        O      0.274666666667     0.216000000000     0.800700000000     0          
O        O      0.000000000000     0.272633333333     0.784900000000     0          
O        O      0.090800000000     0.242533333333     0.957500000000     0          
O        O      0.096433333333     0.298000000000     0.931300000000     0          
O        O      0.090766666667     0.242533333333     0.905500000000     0          
O        O      0.111133333333     0.222233333333     0.863050000000     0          
O        O      0.128966666667     0.000000000000     0.888100000000     0          
O        O      0.166666666667     0.000000000000     0.929050000000     0          
O        O      0.166666666667     0.000000000000     0.847100000000     0          
O        O      0.096100000000     0.298266666667     0.844950000000     0          
O        O      0.090900000000     0.242466666667     0.820350000000     0          
O        O      0.058666666667     0.274666666667     0.800700000000     0          
O        O      0.060700000000     0.000000000000     0.784900000000     0          
O        O      0.181600000000     0.090800000000     0.957500000000     0          
O        O      0.131766666667     0.096433333333     0.931300000000     0          
O        O      0.181566666667     0.090766666667     0.905500000000     0          
O        O      0.128966666667     0.128966666667     0.888100000000     0          
O        O      0.166666666667     0.166666666667     0.929050000000     0          
O        O      0.166666666667     0.166666666667     0.847100000000     0          
O        O      0.131166666667     0.096100000000     0.844950000000     0          
O        O      0.181766666667     0.090900000000     0.820350000000     0          
O        O      0.117333333333     0.058666666667     0.800700000000     0          
O        O      0.060700000000     0.060700000000     0.784900000000     0          
O        O      0.090800000000     0.181600000000     0.957500000000     0          
O        O      0.035333333333     0.131766666667     0.931300000000     0          
O        O      0.090800000000     0.181566666667     0.905500000000     0          
O        O      0.000000000000     0.128966666667     0.888100000000     0          
O        O      0.035066666667     0.131166666667     0.844950000000     0          
O        O      0.090866666667     0.181766666667     0.820350000000     0          
O        O      0.058666666667     0.117333333333     0.800700000000     0          
O        O      0.000000000000     0.060700000000     0.784900000000     0          
O        O      0.242533333333     0.090800000000     0.957500000000     0          
O        O      0.236900000000     0.035333333333     0.931300000000     0          
O        O      0.242566666667     0.090800000000     0.905500000000     0          
O        O      0.204366666667     0.000000000000     0.888100000000     0          
O        O      0.237233333333     0.035066666667     0.844950000000     0          
O        O      0.242433333333     0.090866666667     0.820350000000     0          
O        O      0.274666666667     0.058666666667     0.800700000000     0          
O        O      0.272633333333     0.000000000000     0.784900000000     0          
O        O      0.151733333333     0.242533333333     0.957500000000     0          
O        O      0.201566666667     0.236900000000     0.931300000000     0          
O        O      0.151766666667     0.242566666667     0.905500000000     0          
O        O      0.204366666667     0.204366666667     0.888100000000     0          
O        O      0.202166666667     0.237233333333     0.844950000000     0          
O        O      0.151566666667     0.242433333333     0.820350000000     0          
O        O      0.216000000000     0.274666666667     0.800700000000     0          
O        O      0.272633333333     0.272633333333     0.784900000000     0          
O        O      0.201566666667     0.298000000000     0.931300000000     0          
O        O      0.202166666667     0.298266666667     0.844950000000     0          
O        O      0.236900000000     0.201566666667     0.931300000000     0          
O        O      0.237233333333     0.202166666667     0.844950000000     0          
O        O      0.035333333333     0.236900000000     0.931300000000     0          
O        O      0.035066666667     0.237233333333     0.844950000000     0          
O        O      0.131766666667     0.035333333333     0.931300000000     0          
O        O      0.131166666667     0.035066666667     0.844950000000     0          
O        O      0.096433333333     0.131766666667     0.931300000000     0          
O        O      0.096100000000     0.131166666667     0.844950000000     0          
O        O      0.298000000000     0.096433333333     0.931300000000     0          
O        O      0.298266666667     0.096100000000     0.844950000000     0          
O        O      0.035333333333     0.131766666667     0.568700000000     0          
O        O      0.035066666667     0.131166666667     0.655050000000     0          
O        O      0.236900000000     0.035333333333     0.568700000000     0          
O        O      0.237233333333     0.035066666667     0.655050000000     0          
O        O      0.201566666667     0.236900000000     0.568700000000     0          
O        O      0.202166666667     0.237233333333     0.655050000000     0          
O        O      0.298000000000     0.201566666667     0.568700000000     0          
O        O      0.298266666667     0.202166666667     0.655050000000     0          
O        O      0.096433333333     0.298000000000     0.568700000000     0          
O        O      0.096100000000     0.298266666667     0.655050000000     0          
O        O      0.131766666667     0.096433333333     0.568700000000     0          
O        O      0.131166666667     0.096100000000     0.655050000000     0          
O        O      0.222233333333     0.444433333333     0.000000000000     0          
O        O      0.181600000000     0.424133333333     0.042500000000     0          
O        O      0.131766666667     0.368666666667     0.068700000000     0          
O        O      0.181566666667     0.424133333333     0.094500000000     0          
O        O      0.222233333333     0.444433333333     0.136950000000     0          
O        O      0.128966666667     0.333333333333     0.111900000000     0          
O        O      0.166666666667     0.333333333333     0.070950000000     0          
O        O      0.166666666667     0.333333333333     0.152900000000     0          
O        O      0.131166666667     0.368400000000     0.155050000000     0          
O        O      0.181766666667     0.424200000000     0.179650000000     0          
O        O      0.117333333333     0.392000000000     0.199300000000     0          
O        O      0.060700000000     0.333333333333     0.215100000000     0          
O        O      0.099633333333     0.383166666667     0.250000000000     0          
O        O      0.111133333333     0.555566666667     0.000000000000     0          
O        O      0.090800000000     0.514933333333     0.042500000000     0          
O        O      0.096433333333     0.465100000000     0.068700000000     0          
O        O      0.090766666667     0.514900000000     0.094500000000     0          
O        O      0.111133333333     0.555566666667     0.136950000000     0          
O        O      0.128966666667     0.462300000000     0.111900000000     0          
O        O      0.166666666667     0.500000000000     0.070950000000     0          
O        O      0.166666666667     0.500000000000     0.152900000000     0          
O        O      0.096100000000     0.464500000000     0.155050000000     0          
O        O      0.090900000000     0.515100000000     0.179650000000     0          
O        O      0.058666666667     0.450666666667     0.199300000000     0          
O        O      0.060700000000     0.394033333333     0.215100000000     0          
O        O      0.049800000000     0.432966666667     0.250000000000     0          
O        O      0.242533333333     0.424133333333     0.042500000000     0          
O        O      0.298000000000     0.429766666667     0.068700000000     0          
O        O      0.242533333333     0.424100000000     0.094500000000     0          
O        O      0.000000000000     0.462300000000     0.111900000000     0          
O        O      0.000000000000     0.500000000000     0.070950000000     0          
O        O      0.000000000000     0.500000000000     0.152900000000     0          
O        O      0.298266666667     0.429433333333     0.155050000000     0          
O        O      0.242466666667     0.424233333333     0.179650000000     0          
O        O      0.274666666667     0.392000000000     0.199300000000     0          
O        O      0.000000000000     0.394033333333     0.215100000000     0          
O        O      0.283500000000     0.383133333333     0.250000000000     0          
O        O      0.151733333333     0.575866666667     0.042500000000     0          
O        O      0.201566666667     0.631333333333     0.068700000000     0          
O        O      0.151766666667     0.575866666667     0.094500000000     0          
O        O      0.204366666667     0.333333333333     0.111900000000     0          
O        O      0.202166666667     0.631600000000     0.155050000000     0          
O        O      0.151566666667     0.575800000000     0.179650000000     0          
O        O      0.216000000000     0.608000000000     0.199300000000     0          
O        O      0.272633333333     0.333333333333     0.215100000000     0          
O        O      0.233700000000     0.616833333333     0.250000000000     0          
O        O      0.242533333333     0.485066666667     0.042500000000     0          
O        O      0.236900000000     0.534900000000     0.068700000000     0          
O        O      0.242566666667     0.485100000000     0.094500000000     0          
O        O      0.204366666667     0.537700000000     0.111900000000     0          
O        O      0.237233333333     0.535500000000     0.155050000000     0          
O        O      0.242433333333     0.484900000000     0.179650000000     0          
O        O      0.274666666667     0.549333333333     0.199300000000     0          
O        O      0.272633333333     0.605966666667     0.215100000000     0          
O        O      0.283533333333     0.567033333333     0.250000000000     0          
O        O      0.090800000000     0.575866666667     0.042500000000     0          
O        O      0.035333333333     0.570233333333     0.068700000000     0          
O        O      0.090800000000     0.575900000000     0.094500000000     0          
O        O      0.000000000000     0.537700000000     0.111900000000     0          
O        O      0.035066666667     0.570566666667     0.155050000000     0          
O        O      0.090866666667     0.575766666667     0.179650000000     0          
O        O      0.058666666667     0.608000000000     0.199300000000     0          
O        O      0.000000000000     0.605966666667     0.215100000000     0          
O        O      0.049833333333     0.616866666667     0.250000000000     0          
O        O      0.242533333333     0.485066666667     0.457500000000     0          
O        O      0.298000000000     0.534900000000     0.431300000000     0          
O        O      0.242533333333     0.485100000000     0.405500000000     0          
O        O      0.222233333333     0.444433333333     0.363050000000     0          
O        O      0.000000000000     0.537700000000     0.388100000000     0          
O        O      0.000000000000     0.500000000000     0.429050000000     0          
O        O      0.000000000000     0.500000000000     0.347100000000     0          
O        O      0.298266666667     0.535500000000     0.344950000000     0          
O        O      0.242466666667     0.484900000000     0.320350000000     0          
O        O      0.274666666667     0.549333333333     0.300700000000     0          
O        O      0.000000000000     0.605966666667     0.284900000000     0          
O        O      0.090800000000     0.575866666667     0.457500000000     0          
O        O      0.096433333333     0.631333333333     0.431300000000     0          
O        O      0.090766666667     0.575866666667     0.405500000000     0          
O        O      0.111133333333     0.555566666667     0.363050000000     0          
O        O      0.128966666667     0.333333333333     0.388100000000     0          
O        O      0.166666666667     0.333333333333     0.429050000000     0          
O        O      0.166666666667     0.333333333333     0.347100000000     0          
O        O      0.096100000000     0.631600000000     0.344950000000     0          
O        O      0.090900000000     0.575800000000     0.320350000000     0          
O        O      0.058666666667     0.608000000000     0.300700000000     0          
O        O      0.060700000000     0.333333333333     0.284900000000     0          
O        O      0.181600000000     0.424133333333     0.457500000000     0          
O        O      0.131766666667     0.429766666667     0.431300000000     0          
O        O      0.181566666667     0.424100000000     0.405500000000     0          
O        O      0.128966666667     0.462300000000     0.388100000000     0          
O        O      0.166666666667     0.500000000000     0.429050000000     0          
O        O      0.166666666667     0.500000000000     0.347100000000     0          
O        O      0.131166666667     0.429433333333     0.344950000000     0          
O        O      0.181766666667     0.424233333333     0.320350000000     0          
O        O      0.117333333333     0.392000000000     0.300700000000     0          
O        O      0.060700000000     0.394033333333     0.284900000000     0          
O        O      0.090800000000     0.514933333333     0.457500000000     0          
O        O      0.035333333333     0.465100000000     0.431300000000     0          
O        O      0.090800000000     0.514900000000     0.405500000000     0          
O        O      0.000000000000     0.462300000000     0.388100000000     0          
O        O      0.035066666667     0.464500000000     0.344950000000     0          
O        O      0.090866666667     0.515100000000     0.320350000000     0          
O        O      0.058666666667     0.450666666667     0.300700000000     0          
O        O      0.000000000000     0.394033333333     0.284900000000     0          
O        O      0.242533333333     0.424133333333     0.457500000000     0          
O        O      0.236900000000     0.368666666667     0.431300000000     0          
O        O      0.242566666667     0.424133333333     0.405500000000     0          
O        O      0.204366666667     0.333333333333     0.388100000000     0          
O        O      0.237233333333     0.368400000000     0.344950000000     0          
O        O      0.242433333333     0.424200000000     0.320350000000     0          
O        O      0.274666666667     0.392000000000     0.300700000000     0          
O        O      0.272633333333     0.333333333333     0.284900000000     0          
O        O      0.151733333333     0.575866666667     0.457500000000     0          
O        O      0.201566666667     0.570233333333     0.431300000000     0          
O        O      0.151766666667     0.575900000000     0.405500000000     0          
O        O      0.204366666667     0.537700000000     0.388100000000     0          
O        O      0.202166666667     0.570566666667     0.344950000000     0          
O        O      0.151566666667     0.575766666667     0.320350000000     0          
O        O      0.216000000000     0.608000000000     0.300700000000     0          
O        O      0.272633333333     0.605966666667     0.284900000000     0          
O        O      0.201566666667     0.631333333333     0.431300000000     0          
O        O      0.202166666667     0.631600000000     0.344950000000     0          
O        O      0.236900000000     0.534900000000     0.431300000000     0          
O        O      0.237233333333     0.535500000000     0.344950000000     0          
O        O      0.035333333333     0.570233333333     0.431300000000     0          
O        O      0.035066666667     0.570566666667     0.344950000000     0          
O        O      0.131766666667     0.368666666667     0.431300000000     0          
O        O      0.131166666667     0.368400000000     0.344950000000     0          
O        O      0.096433333333     0.465100000000     0.431300000000     0          
O        O      0.096100000000     0.464500000000     0.344950000000     0          
O        O      0.298000000000     0.429766666667     0.431300000000     0          
O        O      0.298266666667     0.429433333333     0.344950000000     0          
O        O      0.035333333333     0.465100000000     0.068700000000     0          
O        O      0.035066666667     0.464500000000     0.155050000000     0          
O        O      0.236900000000     0.368666666667     0.068700000000     0          
O        O      0.237233333333     0.368400000000     0.155050000000     0          
O        O      0.201566666667     0.570233333333     0.068700000000     0          
O        O      0.202166666667     0.570566666667     0.155050000000     0          
O        O      0.298000000000     0.534900000000     0.068700000000     0          
O        O      0.298266666667     0.535500000000     0.155050000000     0          
O        O      0.096433333333     0.631333333333     0.068700000000     0          
O        O      0.096100000000     0.631600000000     0.155050000000     0          
O        O      0.131766666667     0.429766666667     0.068700000000     0          
O        O      0.131166666667     0.429433333333     0.155050000000     0          
O        O      0.222233333333     0.444433333333     0.500000000000     0          
O        O      0.181600000000     0.424133333333     0.542500000000     0          
O        O      0.131766666667     0.368666666667     0.568700000000     0          
O        O      0.181566666667     0.424133333333     0.594500000000     0          
O        O      0.222233333333     0.444433333333     0.636950000000     0          
O        O      0.128966666667     0.333333333333     0.611900000000     0          
O        O      0.166666666667     0.333333333333     0.570950000000     0          
O        O      0.166666666667     0.333333333333     0.652900000000     0          
O        O      0.131166666667     0.368400000000     0.655050000000     0          
O        O      0.181766666667     0.424200000000     0.679650000000     0          
O        O      0.117333333333     0.392000000000     0.699300000000     0          
O        O      0.060700000000     0.333333333333     0.715100000000     0          
O        O      0.099633333333     0.383166666667     0.750000000000     0          
O        O      0.111133333333     0.555566666667     0.500000000000     0          
O        O      0.090800000000     0.514933333333     0.542500000000     0          
O        O      0.096433333333     0.465100000000     0.568700000000     0          
O        O      0.090766666667     0.514900000000     0.594500000000     0          
O        O      0.111133333333     0.555566666667     0.636950000000     0          
O        O      0.128966666667     0.462300000000     0.611900000000     0          
O        O      0.166666666667     0.500000000000     0.570950000000     0          
O        O      0.166666666667     0.500000000000     0.652900000000     0          
O        O      0.096100000000     0.464500000000     0.655050000000     0          
O        O      0.090900000000     0.515100000000     0.679650000000     0          
O        O      0.058666666667     0.450666666667     0.699300000000     0          
O        O      0.060700000000     0.394033333333     0.715100000000     0          
O        O      0.049800000000     0.432966666667     0.750000000000     0          
O        O      0.242533333333     0.424133333333     0.542500000000     0          
O        O      0.298000000000     0.429766666667     0.568700000000     0          
O        O      0.242533333333     0.424100000000     0.594500000000     0          
O        O      0.000000000000     0.462300000000     0.611900000000     0          
O        O      0.000000000000     0.500000000000     0.570950000000     0          
O        O      0.000000000000     0.500000000000     0.652900000000     0          
O        O      0.298266666667     0.429433333333     0.655050000000     0          
O        O      0.242466666667     0.424233333333     0.679650000000     0          
O        O      0.274666666667     0.392000000000     0.699300000000     0          
O        O      0.000000000000     0.394033333333     0.715100000000     0          
O        O      0.283500000000     0.383133333333     0.750000000000     0          
O        O      0.151733333333     0.575866666667     0.542500000000     0          
O        O      0.201566666667     0.631333333333     0.568700000000     0          
O        O      0.151766666667     0.575866666667     0.594500000000     0          
O        O      0.204366666667     0.333333333333     0.611900000000     0          
O        O      0.202166666667     0.631600000000     0.655050000000     0          
O        O      0.151566666667     0.575800000000     0.679650000000     0          
O        O      0.216000000000     0.608000000000     0.699300000000     0          
O        O      0.272633333333     0.333333333333     0.715100000000     0          
O        O      0.233700000000     0.616833333333     0.750000000000     0          
O        O      0.242533333333     0.485066666667     0.542500000000     0          
O        O      0.236900000000     0.534900000000     0.568700000000     0          
O        O      0.242566666667     0.485100000000     0.594500000000     0          
O        O      0.204366666667     0.537700000000     0.611900000000     0          
O        O      0.237233333333     0.535500000000     0.655050000000     0          
O        O      0.242433333333     0.484900000000     0.679650000000     0          
O        O      0.274666666667     0.549333333333     0.699300000000     0          
O        O      0.272633333333     0.605966666667     0.715100000000     0          
O        O      0.283533333333     0.567033333333     0.750000000000     0          
O        O      0.090800000000     0.575866666667     0.542500000000     0          
O        O      0.035333333333     0.570233333333     0.568700000000     0          
O        O      0.090800000000     0.575900000000     0.594500000000     0          
O        O      0.000000000000     0.537700000000     0.611900000000     0          
O        O      0.035066666667     0.570566666667     0.655050000000     0          
O        O      0.090866666667     0.575766666667     0.679650000000     0          
O        O      0.058666666667     0.608000000000     0.699300000000     0          
O        O      0.000000000000     0.605966666667     0.715100000000     0          
O        O      0.049833333333     0.616866666667     0.750000000000     0          
O        O      0.242533333333     0.485066666667     0.957500000000     0          
O        O      0.298000000000     0.534900000000     0.931300000000     0          
O        O      0.242533333333     0.485100000000     0.905500000000     0          
O        O      0.222233333333     0.444433333333     0.863050000000     0          
O        O      0.000000000000     0.537700000000     0.888100000000     0          
O        O      0.000000000000     0.500000000000     0.929050000000     0          
O        O      0.000000000000     0.500000000000     0.847100000000     0          
O        O      0.298266666667     0.535500000000     0.844950000000     0          
O        O      0.242466666667     0.484900000000     0.820350000000     0          
O        O      0.274666666667     0.549333333333     0.800700000000     0          
O        O      0.000000000000     0.605966666667     0.784900000000     0          
O        O      0.090800000000     0.575866666667     0.957500000000     0          
O        O      0.096433333333     0.631333333333     0.931300000000     0          
O        O      0.090766666667     0.575866666667     0.905500000000     0          
O        O      0.111133333333     0.555566666667     0.863050000000     0          
O        O      0.128966666667     0.333333333333     0.888100000000     0          
O        O      0.166666666667     0.333333333333     0.929050000000     0          
O        O      0.166666666667     0.333333333333     0.847100000000     0          
O        O      0.096100000000     0.631600000000     0.844950000000     0          
O        O      0.090900000000     0.575800000000     0.820350000000     0          
O        O      0.058666666667     0.608000000000     0.800700000000     0          
O        O      0.060700000000     0.333333333333     0.784900000000     0          
O        O      0.181600000000     0.424133333333     0.957500000000     0          
O        O      0.131766666667     0.429766666667     0.931300000000     0          
O        O      0.181566666667     0.424100000000     0.905500000000     0          
O        O      0.128966666667     0.462300000000     0.888100000000     0          
O        O      0.166666666667     0.500000000000     0.929050000000     0          
O        O      0.166666666667     0.500000000000     0.847100000000     0          
O        O      0.131166666667     0.429433333333     0.844950000000     0          
O        O      0.181766666667     0.424233333333     0.820350000000     0          
O        O      0.117333333333     0.392000000000     0.800700000000     0          
O        O      0.060700000000     0.394033333333     0.784900000000     0          
O        O      0.090800000000     0.514933333333     0.957500000000     0          
O        O      0.035333333333     0.465100000000     0.931300000000     0          
O        O      0.090800000000     0.514900000000     0.905500000000     0          
O        O      0.000000000000     0.462300000000     0.888100000000     0          
O        O      0.035066666667     0.464500000000     0.844950000000     0          
O        O      0.090866666667     0.515100000000     0.820350000000     0          
O        O      0.058666666667     0.450666666667     0.800700000000     0          
O        O      0.000000000000     0.394033333333     0.784900000000     0          
O        O      0.242533333333     0.424133333333     0.957500000000     0          
O        O      0.236900000000     0.368666666667     0.931300000000     0          
O        O      0.242566666667     0.424133333333     0.905500000000     0          
O        O      0.204366666667     0.333333333333     0.888100000000     0          
O        O      0.237233333333     0.368400000000     0.844950000000     0          
O        O      0.242433333333     0.424200000000     0.820350000000     0          
O        O      0.274666666667     0.392000000000     0.800700000000     0          
O        O      0.272633333333     0.333333333333     0.784900000000     0          
O        O      0.151733333333     0.575866666667     0.957500000000     0          
O        O      0.201566666667     0.570233333333     0.931300000000     0          
O        O      0.151766666667     0.575900000000     0.905500000000     0          
O        O      0.204366666667     0.537700000000     0.888100000000     0          
O        O      0.202166666667     0.570566666667     0.844950000000     0          
O        O      0.151566666667     0.575766666667     0.820350000000     0          
O        O      0.216000000000     0.608000000000     0.800700000000     0          
O        O      0.272633333333     0.605966666667     0.784900000000     0          
O        O      0.201566666667     0.631333333333     0.931300000000     0          
O        O      0.202166666667     0.631600000000     0.844950000000     0          
O        O      0.236900000000     0.534900000000     0.931300000000     0          
O        O      0.237233333333     0.535500000000     0.844950000000     0          
O        O      0.035333333333     0.570233333333     0.931300000000     0          
O        O      0.035066666667     0.570566666667     0.844950000000     0          
O        O      0.131766666667     0.368666666667     0.931300000000     0          
O        O      0.131166666667     0.368400000000     0.844950000000     0          
O        O      0.096433333333     0.465100000000     0.931300000000     0          
O        O      0.096100000000     0.464500000000     0.844950000000     0          
O        O      0.298000000000     0.429766666667     0.931300000000     0          
O        O      0.298266666667     0.429433333333     0.844950000000     0          
O        O      0.035333333333     0.465100000000     0.568700000000     0          
O        O      0.035066666667     0.464500000000     0.655050000000     0          
O        O      0.236900000000     0.368666666667     0.568700000000     0          
O        O      0.237233333333     0.368400000000     0.655050000000     0          
O        O      0.201566666667     0.570233333333     0.568700000000     0          
O        O      0.202166666667     0.570566666667     0.655050000000     0          
O        O      0.298000000000     0.534900000000     0.568700000000     0          
O        O      0.298266666667     0.535500000000     0.655050000000     0          
O        O      0.096433333333     0.631333333333     0.568700000000     0          
O        O      0.096100000000     0.631600000000     0.655050000000     0          
O        O      0.131766666667     0.429766666667     0.568700000000     0          
O        O      0.131166666667     0.429433333333     0.655050000000     0          
O        O      0.222233333333     0.777766666667     0.000000000000     0          
O        O      0.181600000000     0.757466666667     0.042500000000     0          
O        O      0.131766666667     0.702000000000     0.068700000000     0          
O        O      0.181566666667     0.757466666667     0.094500000000     0          
O        O      0.222233333333     0.777766666667     0.136950000000     0          
O        O      0.128966666667     0.666666666667     0.111900000000     0          
O        O      0.166666666667     0.666666666667     0.070950000000     0          
O        O      0.166666666667     0.666666666667     0.152900000000     0          
O        O      0.131166666667     0.701733333333     0.155050000000     0          
O        O      0.181766666667     0.757533333333     0.179650000000     0          
O        O      0.117333333333     0.725333333333     0.199300000000     0          
O        O      0.060700000000     0.666666666667     0.215100000000     0          
O        O      0.099633333333     0.716500000000     0.250000000000     0          
O        O      0.111133333333     0.888900000000     0.000000000000     0          
O        O      0.090800000000     0.848266666667     0.042500000000     0          
O        O      0.096433333333     0.798433333333     0.068700000000     0          
O        O      0.090766666667     0.848233333333     0.094500000000     0          
O        O      0.111133333333     0.888900000000     0.136950000000     0          
O        O      0.128966666667     0.795633333333     0.111900000000     0          
O        O      0.166666666667     0.833333333333     0.070950000000     0          
O        O      0.166666666667     0.833333333333     0.152900000000     0          
O        O      0.096100000000     0.797833333333     0.155050000000     0          
O        O      0.090900000000     0.848433333333     0.179650000000     0          
O        O      0.058666666667     0.784000000000     0.199300000000     0          
O        O      0.060700000000     0.727366666667     0.215100000000     0          
O        O      0.049800000000     0.766300000000     0.250000000000     0          
O        O      0.242533333333     0.757466666667     0.042500000000     0          
O        O      0.298000000000     0.763100000000     0.068700000000     0          
O        O      0.242533333333     0.757433333333     0.094500000000     0          
O        O      0.000000000000     0.795633333333     0.111900000000     0          
O        O      0.000000000000     0.833333333333     0.070950000000     0          
O        O      0.000000000000     0.833333333333     0.152900000000     0          
O        O      0.298266666667     0.762766666667     0.155050000000     0          
O        O      0.242466666667     0.757566666667     0.179650000000     0          
O        O      0.274666666667     0.725333333333     0.199300000000     0          
O        O      0.000000000000     0.727366666667     0.215100000000     0          
O        O      0.283500000000     0.716466666667     0.250000000000     0          
O        O      0.151733333333     0.909200000000     0.042500000000     0          
O        O      0.201566666667     0.964666666667     0.068700000000     0          
O        O      0.151766666667     0.909200000000     0.094500000000     0          
O        O      0.204366666667     0.666666666667     0.111900000000     0          
O        O      0.202166666667     0.964933333333     0.155050000000     0          
O        O      0.151566666667     0.909133333333     0.179650000000     0          
O        O      0.216000000000     0.941333333333     0.199300000000     0          
O        O      0.272633333333     0.666666666667     0.215100000000     0          
O        O      0.233700000000     0.950166666667     0.250000000000     0          
O        O      0.242533333333     0.818400000000     0.042500000000     0          
O        O      0.236900000000     0.868233333333     0.068700000000     0          
O        O      0.242566666667     0.818433333333     0.094500000000     0          
O        O      0.204366666667     0.871033333333     0.111900000000     0          
O        O      0.237233333333     0.868833333333     0.155050000000     0          
O        O      0.242433333333     0.818233333333     0.179650000000     0          
O        O      0.274666666667     0.882666666667     0.199300000000     0          
O        O      0.272633333333     0.939300000000     0.215100000000     0          
O        O      0.283533333333     0.900366666667     0.250000000000     0          
O        O      0.090800000000     0.909200000000     0.042500000000     0          
O        O      0.035333333333     0.903566666667     0.068700000000     0          
O        O      0.090800000000     0.909233333333     0.094500000000     0          
O        O      0.000000000000     0.871033333333     0.111900000000     0          
O        O      0.035066666667     0.903900000000     0.155050000000     0          
O        O      0.090866666667     0.909100000000     0.179650000000     0          
O        O      0.058666666667     0.941333333333     0.199300000000     0          
O        O      0.000000000000     0.939300000000     0.215100000000     0          
O        O      0.049833333333     0.950200000000     0.250000000000     0          
O        O      0.242533333333     0.818400000000     0.457500000000     0          
O        O      0.298000000000     0.868233333333     0.431300000000     0          
O        O      0.242533333333     0.818433333333     0.405500000000     0          
O        O      0.222233333333     0.777766666667     0.363050000000     0          
O        O      0.000000000000     0.871033333333     0.388100000000     0          
O        O      0.000000000000     0.833333333333     0.429050000000     0          
O        O      0.000000000000     0.833333333333     0.347100000000     0          
O        O      0.298266666667     0.868833333333     0.344950000000     0          
O        O      0.242466666667     0.818233333333     0.320350000000     0          
O        O      0.274666666667     0.882666666667     0.300700000000     0          
O        O      0.000000000000     0.939300000000     0.284900000000     0          
O        O      0.090800000000     0.909200000000     0.457500000000     0          
O        O      0.096433333333     0.964666666667     0.431300000000     0          
O        O      0.090766666667     0.909200000000     0.405500000000     0          
O        O      0.111133333333     0.888900000000     0.363050000000     0          
O        O      0.128966666667     0.666666666667     0.388100000000     0          
O        O      0.166666666667     0.666666666667     0.429050000000     0          
O        O      0.166666666667     0.666666666667     0.347100000000     0          
O        O      0.096100000000     0.964933333333     0.344950000000     0          
O        O      0.090900000000     0.909133333333     0.320350000000     0          
O        O      0.058666666667     0.941333333333     0.300700000000     0          
O        O      0.060700000000     0.666666666667     0.284900000000     0          
O        O      0.181600000000     0.757466666667     0.457500000000     0          
O        O      0.131766666667     0.763100000000     0.431300000000     0          
O        O      0.181566666667     0.757433333333     0.405500000000     0          
O        O      0.128966666667     0.795633333333     0.388100000000     0          
O        O      0.166666666667     0.833333333333     0.429050000000     0          
O        O      0.166666666667     0.833333333333     0.347100000000     0          
O        O      0.131166666667     0.762766666667     0.344950000000     0          
O        O      0.181766666667     0.757566666667     0.320350000000     0          
O        O      0.117333333333     0.725333333333     0.300700000000     0          
O        O      0.060700000000     0.727366666667     0.284900000000     0          
O        O      0.090800000000     0.848266666667     0.457500000000     0          
O        O      0.035333333333     0.798433333333     0.431300000000     0          
O        O      0.090800000000     0.848233333333     0.405500000000     0          
O        O      0.000000000000     0.795633333333     0.388100000000     0          
O        O      0.035066666667     0.797833333333     0.344950000000     0          
O        O      0.090866666667     0.848433333333     0.320350000000     0          
O        O      0.058666666667     0.784000000000     0.300700000000     0          
O        O      0.000000000000     0.727366666667     0.284900000000     0          
O        O      0.242533333333     0.757466666667     0.457500000000     0          
O        O      0.236900000000     0.702000000000     0.431300000000     0          
O        O      0.242566666667     0.757466666667     0.405500000000     0          
O        O      0.204366666667     0.666666666667     0.388100000000     0          
O        O      0.237233333333     0.701733333333     0.344950000000     0          
O        O      0.242433333333     0.757533333333     0.320350000000     0          
O        O      0.274666666667     0.725333333333     0.300700000000     0          
O        O      0.272633333333     0.666666666667     0.284900000000     0          
O        O      0.151733333333     0.909200000000     0.457500000000     0          
O        O      0.201566666667     0.903566666667     0.431300000000     0          
O        O      0.151766666667     0.909233333333     0.405500000000     0          
O        O      0.204366666667     0.871033333333     0.388100000000     0          
O        O      0.202166666667     0.903900000000     0.344950000000     0          
O        O      0.151566666667     0.909100000000     0.320350000000     0          
O        O      0.216000000000     0.941333333333     0.300700000000     0          
O        O      0.272633333333     0.939300000000     0.284900000000     0          
O        O      0.201566666667     0.964666666667     0.431300000000     0          
O        O      0.202166666667     0.964933333333     0.344950000000     0          
O        O      0.236900000000     0.868233333333     0.431300000000     0          
O        O      0.237233333333     0.868833333333     0.344950000000     0          
O        O      0.035333333333     0.903566666667     0.431300000000     0          
O        O      0.035066666667     0.903900000000     0.344950000000     0          
O        O      0.131766666667     0.702000000000     0.431300000000     0          
O        O      0.131166666667     0.701733333333     0.344950000000     0          
O        O      0.096433333333     0.798433333333     0.431300000000     0          
O        O      0.096100000000     0.797833333333     0.344950000000     0          
O        O      0.298000000000     0.763100000000     0.431300000000     0          
O        O      0.298266666667     0.762766666667     0.344950000000     0          
O        O      0.035333333333     0.798433333333     0.068700000000     0          
O        O      0.035066666667     0.797833333333     0.155050000000     0          
O        O      0.236900000000     0.702000000000     0.068700000000     0          
O        O      0.237233333333     0.701733333333     0.155050000000     0          
O        O      0.201566666667     0.903566666667     0.068700000000     0          
O        O      0.202166666667     0.903900000000     0.155050000000     0          
O        O      0.298000000000     0.868233333333     0.068700000000     0          
O        O      0.298266666667     0.868833333333     0.155050000000     0          
O        O      0.096433333333     0.964666666667     0.068700000000     0          
O        O      0.096100000000     0.964933333333     0.155050000000     0          
O        O      0.131766666667     0.763100000000     0.068700000000     0          
O        O      0.131166666667     0.762766666667     0.155050000000     0          
O        O      0.222233333333     0.777766666667     0.500000000000     0          
O        O      0.181600000000     0.757466666667     0.542500000000     0          
O        O      0.131766666667     0.702000000000     0.568700000000     0          
O        O      0.181566666667     0.757466666667     0.594500000000     0          
O        O      0.222233333333     0.777766666667     0.636950000000     0          
O        O      0.128966666667     0.666666666667     0.611900000000     0          
O        O      0.166666666667     0.666666666667     0.570950000000     0          
O        O      0.166666666667     0.666666666667     0.652900000000     0          
O        O      0.131166666667     0.701733333333     0.655050000000     0          
O        O      0.181766666667     0.757533333333     0.679650000000     0          
O        O      0.117333333333     0.725333333333     0.699300000000     0          
O        O      0.060700000000     0.666666666667     0.715100000000     0          
O        O      0.099633333333     0.716500000000     0.750000000000     0          
O        O      0.111133333333     0.888900000000     0.500000000000     0          
O        O      0.090800000000     0.848266666667     0.542500000000     0          
O        O      0.096433333333     0.798433333333     0.568700000000     0          
O        O      0.090766666667     0.848233333333     0.594500000000     0          
O        O      0.111133333333     0.888900000000     0.636950000000     0          
O        O      0.128966666667     0.795633333333     0.611900000000     0          
O        O      0.166666666667     0.833333333333     0.570950000000     0          
O        O      0.166666666667     0.833333333333     0.652900000000     0          
O        O      0.096100000000     0.797833333333     0.655050000000     0          
O        O      0.090900000000     0.848433333333     0.679650000000     0          
O        O      0.058666666667     0.784000000000     0.699300000000     0          
O        O      0.060700000000     0.727366666667     0.715100000000     0          
O        O      0.049800000000     0.766300000000     0.750000000000     0          
O        O      0.242533333333     0.757466666667     0.542500000000     0          
O        O      0.298000000000     0.763100000000     0.568700000000     0          
O        O      0.242533333333     0.757433333333     0.594500000000     0          
O        O      0.000000000000     0.795633333333     0.611900000000     0          
O        O      0.000000000000     0.833333333333     0.570950000000     0          
O        O      0.000000000000     0.833333333333     0.652900000000     0          
O        O      0.298266666667     0.762766666667     0.655050000000     0          
O        O      0.242466666667     0.757566666667     0.679650000000     0          
O        O      0.274666666667     0.725333333333     0.699300000000     0          
O        O      0.000000000000     0.727366666667     0.715100000000     0          
O        O      0.283500000000     0.716466666667     0.750000000000     0          
O        O      0.151733333333     0.909200000000     0.542500000000     0          
O        O      0.201566666667     0.964666666667     0.568700000000     0          
O        O      0.151766666667     0.909200000000     0.594500000000     0          
O        O      0.204366666667     0.666666666667     0.611900000000     0          
O        O      0.202166666667     0.964933333333     0.655050000000     0          
O        O      0.151566666667     0.909133333333     0.679650000000     0          
O        O      0.216000000000     0.941333333333     0.699300000000     0          
O        O      0.272633333333     0.666666666667     0.715100000000     0          
O        O      0.233700000000     0.950166666667     0.750000000000     0          
O        O      0.242533333333     0.818400000000     0.542500000000     0          
O        O      0.236900000000     0.868233333333     0.568700000000     0          
O        O      0.242566666667     0.818433333333     0.594500000000     0          
O        O      0.204366666667     0.871033333333     0.611900000000     0          
O        O      0.237233333333     0.868833333333     0.655050000000     0          
O        O      0.242433333333     0.818233333333     0.679650000000     0          
O        O      0.274666666667     0.882666666667     0.699300000000     0          
O        O      0.272633333333     0.939300000000     0.715100000000     0          
O        O      0.283533333333     0.900366666667     0.750000000000     0          
O        O      0.090800000000     0.909200000000     0.542500000000     0          
O        O      0.035333333333     0.903566666667     0.568700000000     0          
O        O      0.090800000000     0.909233333333     0.594500000000     0          
O        O      0.000000000000     0.871033333333     0.611900000000     0          
O        O      0.035066666667     0.903900000000     0.655050000000     0          
O        O      0.090866666667     0.909100000000     0.679650000000     0          
O        O      0.058666666667     0.941333333333     0.699300000000     0          
O        O      0.000000000000     0.939300000000     0.715100000000     0          
O        O      0.049833333333     0.950200000000     0.750000000000     0          
O        O      0.242533333333     0.818400000000     0.957500000000     0          
O        O      0.298000000000     0.868233333333     0.931300000000     0          
O        O      0.242533333333     0.818433333333     0.905500000000     0          
O        O      0.222233333333     0.777766666667     0.863050000000     0          
O        O      0.000000000000     0.871033333333     0.888100000000     0          
O        O      0.000000000000     0.833333333333     0.929050000000     0          
O        O      0.000000000000     0.833333333333     0.847100000000     0          
O        O      0.298266666667     0.868833333333     0.844950000000     0          
O        O      0.242466666667     0.818233333333     0.820350000000     0          
O        O      0.274666666667     0.882666666667     0.800700000000     0          
O        O      0.000000000000     0.939300000000     0.784900000000     0          
O        O      0.090800000000     0.909200000000     0.957500000000     0          
O        O      0.096433333333     0.964666666667     0.931300000000     0          
O        O      0.090766666667     0.909200000000     0.905500000000     0          
O        O      0.111133333333     0.888900000000     0.863050000000     0          
O        O      0.128966666667     0.666666666667     0.888100000000     0          
O        O      0.166666666667     0.666666666667     0.929050000000     0          
O        O      0.166666666667     0.666666666667     0.847100000000     0          
O        O      0.096100000000     0.964933333333     0.844950000000     0          
O        O      0.090900000000     0.909133333333     0.820350000000     0          
O        O      0.058666666667     0.941333333333     0.800700000000     0          
O        O      0.060700000000     0.666666666667     0.784900000000     0          
O        O      0.181600000000     0.757466666667     0.957500000000     0          
O        O      0.131766666667     0.763100000000     0.931300000000     0          
O        O      0.181566666667     0.757433333333     0.905500000000     0          
O        O      0.128966666667     0.795633333333     0.888100000000     0          
O        O      0.166666666667     0.833333333333     0.929050000000     0          
O        O      0.166666666667     0.833333333333     0.847100000000     0          
O        O      0.131166666667     0.762766666667     0.844950000000     0          
O        O      0.181766666667     0.757566666667     0.820350000000     0          
O        O      0.117333333333     0.725333333333     0.800700000000     0          
O        O      0.060700000000     0.727366666667     0.784900000000     0          
O        O      0.090800000000     0.848266666667     0.957500000000     0          
O        O      0.035333333333     0.798433333333     0.931300000000     0          
O        O      0.090800000000     0.848233333333     0.905500000000     0          
O        O      0.000000000000     0.795633333333     0.888100000000     0          
O        O      0.035066666667     0.797833333333     0.844950000000     0          
O        O      0.090866666667     0.848433333333     0.820350000000     0          
O        O      0.058666666667     0.784000000000     0.800700000000     0          
O        O      0.000000000000     0.727366666667     0.784900000000     0          
O        O      0.242533333333     0.757466666667     0.957500000000     0          
O        O      0.236900000000     0.702000000000     0.931300000000     0          
O        O      0.242566666667     0.757466666667     0.905500000000     0          
O        O      0.204366666667     0.666666666667     0.888100000000     0          
O        O      0.237233333333     0.701733333333     0.844950000000     0          
O        O      0.242433333333     0.757533333333     0.820350000000     0          
O        O      0.274666666667     0.725333333333     0.800700000000     0          
O        O      0.272633333333     0.666666666667     0.784900000000     0          
O        O      0.151733333333     0.909200000000     0.957500000000     0          
O        O      0.201566666667     0.903566666667     0.931300000000     0          
O        O      0.151766666667     0.909233333333     0.905500000000     0          
O        O      0.204366666667     0.871033333333     0.888100000000     0          
O        O      0.202166666667     0.903900000000     0.844950000000     0          
O        O      0.151566666667     0.909100000000     0.820350000000     0          
O        O      0.216000000000     0.941333333333     0.800700000000     0          
O        O      0.272633333333     0.939300000000     0.784900000000     0          
O        O      0.201566666667     0.964666666667     0.931300000000     0          
O        O      0.202166666667     0.964933333333     0.844950000000     0          
O        O      0.236900000000     0.868233333333     0.931300000000     0          
O        O      0.237233333333     0.868833333333     0.844950000000     0          
O        O      0.035333333333     0.903566666667     0.931300000000     0          
O        O      0.035066666667     0.903900000000     0.844950000000     0          
O        O      0.131766666667     0.702000000000     0.931300000000     0          
O        O      0.131166666667     0.701733333333     0.844950000000     0          
O        O      0.096433333333     0.798433333333     0.931300000000     0          
O        O      0.096100000000     0.797833333333     0.844950000000     0          
O        O      0.298000000000     0.763100000000     0.931300000000     0          
O        O      0.298266666667     0.762766666667     0.844950000000     0          
O        O      0.035333333333     0.798433333333     0.568700000000     0          
O        O      0.035066666667     0.797833333333     0.655050000000     0          
O        O      0.236900000000     0.702000000000     0.568700000000     0          
O        O      0.237233333333     0.701733333333     0.655050000000     0          
O        O      0.201566666667     0.903566666667     0.568700000000     0          
O        O      0.202166666667     0.903900000000     0.655050000000     0          
O        O      0.298000000000     0.868233333333     0.568700000000     0          
O        O      0.298266666667     0.868833333333     0.655050000000     0          
O        O      0.096433333333     0.964666666667     0.568700000000     0          
O        O      0.096100000000     0.964933333333     0.655050000000     0          
O        O      0.131766666667     0.763100000000     0.568700000000     0          
O        O      0.131166666667     0.762766666667     0.655050000000     0          
O        O      0.555566666667     0.111100000000     0.000000000000     0          
O        O      0.514933333333     0.090800000000     0.042500000000     0          
O        O      0.465100000000     0.035333333333     0.068700000000     0          
O        O      0.514900000000     0.090800000000     0.094500000000     0          
O        O      0.555566666667     0.111100000000     0.136950000000     0          
O        O      0.462300000000     0.000000000000     0.111900000000     0          
O        O      0.500000000000     0.000000000000     0.070950000000     0          
O        O      0.500000000000     0.000000000000     0.152900000000     0          
O        O      0.464500000000     0.035066666667     0.155050000000     0          
O        O      0.515100000000     0.090866666667     0.179650000000     0          
O        O      0.450666666667     0.058666666667     0.199300000000     0          
O        O      0.394033333333     0.000000000000     0.215100000000     0          
O        O      0.432966666667     0.049833333333     0.250000000000     0          
O        O      0.444466666667     0.222233333333     0.000000000000     0          
O        O      0.424133333333     0.181600000000     0.042500000000     0          
O        O      0.429766666667     0.131766666667     0.068700000000     0          
O        O      0.424100000000     0.181566666667     0.094500000000     0          
O        O      0.444466666667     0.222233333333     0.136950000000     0          
O        O      0.462300000000     0.128966666667     0.111900000000     0          
O        O      0.500000000000     0.166666666667     0.070950000000     0          
O        O      0.500000000000     0.166666666667     0.152900000000     0          
O        O      0.429433333333     0.131166666667     0.155050000000     0          
O        O      0.424233333333     0.181766666667     0.179650000000     0          
O        O      0.392000000000     0.117333333333     0.199300000000     0          
O        O      0.394033333333     0.060700000000     0.215100000000     0          
O        O      0.383133333333     0.099633333333     0.250000000000     0          
O        O      0.575866666667     0.090800000000     0.042500000000     0          
O        O      0.631333333333     0.096433333333     0.068700000000     0          
O        O      0.575866666667     0.090766666667     0.094500000000     0          
O        O      0.333333333333     0.128966666667     0.111900000000     0          
O        O      0.333333333333     0.166666666667     0.070950000000     0          
O        O      0.333333333333     0.166666666667     0.152900000000     0          
O        O      0.631600000000     0.096100000000     0.155050000000     0          
O        O      0.575800000000     0.090900000000     0.179650000000     0          
O        O      0.608000000000     0.058666666667     0.199300000000     0          
O        O      0.333333333333     0.060700000000     0.215100000000     0          
O        O      0.616833333333     0.049800000000     0.250000000000     0          
O        O      0.485066666667     0.242533333333     0.042500000000     0          
O        O      0.534900000000     0.298000000000     0.068700000000     0          
O        O      0.485100000000     0.242533333333     0.094500000000     0          
O        O      0.537700000000     0.000000000000     0.111900000000     0          
O        O      0.535500000000     0.298266666667     0.155050000000     0          
O        O      0.484900000000     0.242466666667     0.179650000000     0          
O        O      0.549333333333     0.274666666667     0.199300000000     0          
O        O      0.605966666667     0.000000000000     0.215100000000     0          
O        O      0.567033333333     0.283500000000     0.250000000000     0          
O        O      0.575866666667     0.151733333333     0.042500000000     0          
O        O      0.570233333333     0.201566666667     0.068700000000     0          
O        O      0.575900000000     0.151766666667     0.094500000000     0          
O        O      0.537700000000     0.204366666667     0.111900000000     0          
O        O      0.570566666667     0.202166666667     0.155050000000     0          
O        O      0.575766666667     0.151566666667     0.179650000000     0          
O        O      0.608000000000     0.216000000000     0.199300000000     0          
O        O      0.605966666667     0.272633333333     0.215100000000     0          
O        O      0.616866666667     0.233700000000     0.250000000000     0          
O        O      0.424133333333     0.242533333333     0.042500000000     0          
O        O      0.368666666667     0.236900000000     0.068700000000     0          
O        O      0.424133333333     0.242566666667     0.094500000000     0          
O        O      0.333333333333     0.204366666667     0.111900000000     0          
O        O      0.368400000000     0.237233333333     0.155050000000     0          
O        O      0.424200000000     0.242433333333     0.179650000000     0          
O        O      0.392000000000     0.274666666667     0.199300000000     0          
O        O      0.333333333333     0.272633333333     0.215100000000     0          
O        O      0.383166666667     0.283533333333     0.250000000000     0          
O        O      0.575866666667     0.151733333333     0.457500000000     0          
O        O      0.631333333333     0.201566666667     0.431300000000     0          
O        O      0.575866666667     0.151766666667     0.405500000000     0          
O        O      0.555566666667     0.111100000000     0.363050000000     0          
O        O      0.333333333333     0.204366666667     0.388100000000     0          
O        O      0.333333333333     0.166666666667     0.429050000000     0          
O        O      0.333333333333     0.166666666667     0.347100000000     0          
O        O      0.631600000000     0.202166666667     0.344950000000     0          
O        O      0.575800000000     0.151566666667     0.320350000000     0          
O        O      0.608000000000     0.216000000000     0.300700000000     0          
O        O      0.333333333333     0.272633333333     0.284900000000     0          
O        O      0.424133333333     0.242533333333     0.457500000000     0          
O        O      0.429766666667     0.298000000000     0.431300000000     0          
O        O      0.424100000000     0.242533333333     0.405500000000     0          
O        O      0.444466666667     0.222233333333     0.363050000000     0          
O        O      0.462300000000     0.000000000000     0.388100000000     0          
O        O      0.500000000000     0.000000000000     0.429050000000     0          
O        O      0.500000000000     0.000000000000     0.347100000000     0          
O        O      0.429433333333     0.298266666667     0.344950000000     0          
O        O      0.424233333333     0.242466666667     0.320350000000     0          
O        O      0.392000000000     0.274666666667     0.300700000000     0          
O        O      0.394033333333     0.000000000000     0.284900000000     0          
O        O      0.514933333333     0.090800000000     0.457500000000     0          
O        O      0.465100000000     0.096433333333     0.431300000000     0          
O        O      0.514900000000     0.090766666667     0.405500000000     0          
O        O      0.462300000000     0.128966666667     0.388100000000     0          
O        O      0.500000000000     0.166666666667     0.429050000000     0          
O        O      0.500000000000     0.166666666667     0.347100000000     0          
O        O      0.464500000000     0.096100000000     0.344950000000     0          
O        O      0.515100000000     0.090900000000     0.320350000000     0          
O        O      0.450666666667     0.058666666667     0.300700000000     0          
O        O      0.394033333333     0.060700000000     0.284900000000     0          
O        O      0.424133333333     0.181600000000     0.457500000000     0          
O        O      0.368666666667     0.131766666667     0.431300000000     0          
O        O      0.424133333333     0.181566666667     0.405500000000     0          
O        O      0.333333333333     0.128966666667     0.388100000000     0          
O        O      0.368400000000     0.131166666667     0.344950000000     0          
O        O      0.424200000000     0.181766666667     0.320350000000     0          
O        O      0.392000000000     0.117333333333     0.300700000000     0          
O        O      0.333333333333     0.060700000000     0.284900000000     0          
O        O      0.575866666667     0.090800000000     0.457500000000     0          
O        O      0.570233333333     0.035333333333     0.431300000000     0          
O        O      0.575900000000     0.090800000000     0.405500000000     0          
O        O      0.537700000000     0.000000000000     0.388100000000     0          
O        O      0.570566666667     0.035066666667     0.344950000000     0          
O        O      0.575766666667     0.090866666667     0.320350000000     0          
O        O      0.608000000000     0.058666666667     0.300700000000     0          
O        O      0.605966666667     0.000000000000     0.284900000000     0          
O        O      0.485066666667     0.242533333333     0.457500000000     0          
O        O      0.534900000000     0.236900000000     0.431300000000     0          
O        O      0.485100000000     0.242566666667     0.405500000000     0          
O        O      0.537700000000     0.204366666667     0.388100000000     0          
O        O      0.535500000000     0.237233333333     0.344950000000     0          
O        O      0.484900000000     0.242433333333     0.320350000000     0          
O        O      0.549333333333     0.274666666667     0.300700000000     0          
O        O      0.605966666667     0.272633333333     0.284900000000     0          
O        O      0.534900000000     0.298000000000     0.431300000000     0          
O        O      0.535500000000     0.298266666667     0.344950000000     0          
O        O      0.570233333333     0.201566666667     0.431300000000     0          
O        O      0.570566666667     0.202166666667     0.344950000000     0          
O        O      0.368666666667     0.236900000000     0.431300000000     0          
O        O      0.368400000000     0.237233333333     0.344950000000     0          
O        O      0.465100000000     0.035333333333     0.431300000000     0          
O        O      0.464500000000     0.035066666667     0.344950000000     0          
O        O      0.429766666667     0.131766666667     0.431300000000     0          
O        O      0.429433333333     0.131166666667     0.344950000000     0          
O        O      0.631333333333     0.096433333333     0.431300000000     0          
O        O      0.631600000000     0.096100000000     0.344950000000     0          
O        O      0.368666666667     0.131766666667     0.068700000000     0          
O        O      0.368400000000     0.131166666667     0.155050000000     0          
O        O      0.570233333333     0.035333333333     0.068700000000     0          
O        O      0.570566666667     0.035066666667     0.155050000000     0          
O        O      0.534900000000     0.236900000000     0.068700000000     0          
O        O      0.535500000000     0.237233333333     0.155050000000     0          
O        O      0.631333333333     0.201566666667     0.068700000000     0          
O        O      0.631600000000     0.202166666667     0.155050000000     0          
O        O      0.429766666667     0.298000000000     0.068700000000     0          
O        O      0.429433333333     0.298266666667     0.155050000000     0          
O        O      0.465100000000     0.096433333333     0.068700000000     0          
O        O      0.464500000000     0.096100000000     0.155050000000     0          
O        O      0.555566666667     0.111100000000     0.500000000000     0          
O        O      0.514933333333     0.090800000000     0.542500000000     0          
O        O      0.465100000000     0.035333333333     0.568700000000     0          
O        O      0.514900000000     0.090800000000     0.594500000000     0          
O        O      0.555566666667     0.111100000000     0.636950000000     0          
O        O      0.462300000000     0.000000000000     0.611900000000     0          
O        O      0.500000000000     0.000000000000     0.570950000000     0          
O        O      0.500000000000     0.000000000000     0.652900000000     0          
O        O      0.464500000000     0.035066666667     0.655050000000     0          
O        O      0.515100000000     0.090866666667     0.679650000000     0          
O        O      0.450666666667     0.058666666667     0.699300000000     0          
O        O      0.394033333333     0.000000000000     0.715100000000     0          
O        O      0.432966666667     0.049833333333     0.750000000000     0          
O        O      0.444466666667     0.222233333333     0.500000000000     0          
O        O      0.424133333333     0.181600000000     0.542500000000     0          
O        O      0.429766666667     0.131766666667     0.568700000000     0          
O        O      0.424100000000     0.181566666667     0.594500000000     0          
O        O      0.444466666667     0.222233333333     0.636950000000     0          
O        O      0.462300000000     0.128966666667     0.611900000000     0          
O        O      0.500000000000     0.166666666667     0.570950000000     0          
O        O      0.500000000000     0.166666666667     0.652900000000     0          
O        O      0.429433333333     0.131166666667     0.655050000000     0          
O        O      0.424233333333     0.181766666667     0.679650000000     0          
O        O      0.392000000000     0.117333333333     0.699300000000     0          
O        O      0.394033333333     0.060700000000     0.715100000000     0          
O        O      0.383133333333     0.099633333333     0.750000000000     0          
O        O      0.575866666667     0.090800000000     0.542500000000     0          
O        O      0.631333333333     0.096433333333     0.568700000000     0          
O        O      0.575866666667     0.090766666667     0.594500000000     0          
O        O      0.333333333333     0.128966666667     0.611900000000     0          
O        O      0.333333333333     0.166666666667     0.570950000000     0          
O        O      0.333333333333     0.166666666667     0.652900000000     0          
O        O      0.631600000000     0.096100000000     0.655050000000     0          
O        O      0.575800000000     0.090900000000     0.679650000000     0          
O        O      0.608000000000     0.058666666667     0.699300000000     0          
O        O      0.333333333333     0.060700000000     0.715100000000     0          
O        O      0.616833333333     0.049800000000     0.750000000000     0          
O        O      0.485066666667     0.242533333333     0.542500000000     0          
O        O      0.534900000000     0.298000000000     0.568700000000     0          
O        O      0.485100000000     0.242533333333     0.594500000000     0          
O        O      0.537700000000     0.000000000000     0.611900000000     0          
O        O      0.535500000000     0.298266666667     0.655050000000     0          
O        O      0.484900000000     0.242466666667     0.679650000000     0          
O        O      0.549333333333     0.274666666667     0.699300000000     0          
O        O      0.605966666667     0.000000000000     0.715100000000     0          
O        O      0.567033333333     0.283500000000     0.750000000000     0          
O        O      0.575866666667     0.151733333333     0.542500000000     0          
O        O      0.570233333333     0.201566666667     0.568700000000     0          
O        O      0.575900000000     0.151766666667     0.594500000000     0          
O        O      0.537700000000     0.204366666667     0.611900000000     0          
O        O      0.570566666667     0.202166666667     0.655050000000     0          
O        O      0.575766666667     0.151566666667     0.679650000000     0          
O        O      0.608000000000     0.216000000000     0.699300000000     0          
O        O      0.605966666667     0.272633333333     0.715100000000     0          
O        O      0.616866666667     0.233700000000     0.750000000000     0          
O        O      0.424133333333     0.242533333333     0.542500000000     0          
O        O      0.368666666667     0.236900000000     0.568700000000     0          
O        O      0.424133333333     0.242566666667     0.594500000000     0          
O        O      0.333333333333     0.204366666667     0.611900000000     0          
O        O      0.368400000000     0.237233333333     0.655050000000     0          
O        O      0.424200000000     0.242433333333     0.679650000000     0          
O        O      0.392000000000     0.274666666667     0.699300000000     0          
O        O      0.333333333333     0.272633333333     0.715100000000     0          
O        O      0.383166666667     0.283533333333     0.750000000000     0          
O        O      0.575866666667     0.151733333333     0.957500000000     0          
O        O      0.631333333333     0.201566666667     0.931300000000     0          
O        O      0.575866666667     0.151766666667     0.905500000000     0          
O        O      0.555566666667     0.111100000000     0.863050000000     0          
O        O      0.333333333333     0.204366666667     0.888100000000     0          
O        O      0.333333333333     0.166666666667     0.929050000000     0          
O        O      0.333333333333     0.166666666667     0.847100000000     0          
O        O      0.631600000000     0.202166666667     0.844950000000     0          
O        O      0.575800000000     0.151566666667     0.820350000000     0          
O        O      0.608000000000     0.216000000000     0.800700000000     0          
O        O      0.333333333333     0.272633333333     0.784900000000     0          
O        O      0.424133333333     0.242533333333     0.957500000000     0          
O        O      0.429766666667     0.298000000000     0.931300000000     0          
O        O      0.424100000000     0.242533333333     0.905500000000     0          
O        O      0.444466666667     0.222233333333     0.863050000000     0          
O        O      0.462300000000     0.000000000000     0.888100000000     0          
O        O      0.500000000000     0.000000000000     0.929050000000     0          
O        O      0.500000000000     0.000000000000     0.847100000000     0          
O        O      0.429433333333     0.298266666667     0.844950000000     0          
O        O      0.424233333333     0.242466666667     0.820350000000     0          
O        O      0.392000000000     0.274666666667     0.800700000000     0          
O        O      0.394033333333     0.000000000000     0.784900000000     0          
O        O      0.514933333333     0.090800000000     0.957500000000     0          
O        O      0.465100000000     0.096433333333     0.931300000000     0          
O        O      0.514900000000     0.090766666667     0.905500000000     0          
O        O      0.462300000000     0.128966666667     0.888100000000     0          
O        O      0.500000000000     0.166666666667     0.929050000000     0          
O        O      0.500000000000     0.166666666667     0.847100000000     0          
O        O      0.464500000000     0.096100000000     0.844950000000     0          
O        O      0.515100000000     0.090900000000     0.820350000000     0          
O        O      0.450666666667     0.058666666667     0.800700000000     0          
O        O      0.394033333333     0.060700000000     0.784900000000     0          
O        O      0.424133333333     0.181600000000     0.957500000000     0          
O        O      0.368666666667     0.131766666667     0.931300000000     0          
O        O      0.424133333333     0.181566666667     0.905500000000     0          
O        O      0.333333333333     0.128966666667     0.888100000000     0          
O        O      0.368400000000     0.131166666667     0.844950000000     0          
O        O      0.424200000000     0.181766666667     0.820350000000     0          
O        O      0.392000000000     0.117333333333     0.800700000000     0          
O        O      0.333333333333     0.060700000000     0.784900000000     0          
O        O      0.575866666667     0.090800000000     0.957500000000     0          
O        O      0.570233333333     0.035333333333     0.931300000000     0          
O        O      0.575900000000     0.090800000000     0.905500000000     0          
O        O      0.537700000000     0.000000000000     0.888100000000     0          
O        O      0.570566666667     0.035066666667     0.844950000000     0          
O        O      0.575766666667     0.090866666667     0.820350000000     0          
O        O      0.608000000000     0.058666666667     0.800700000000     0          
O        O      0.605966666667     0.000000000000     0.784900000000     0          
O        O      0.485066666667     0.242533333333     0.957500000000     0          
O        O      0.534900000000     0.236900000000     0.931300000000     0          
O        O      0.485100000000     0.242566666667     0.905500000000     0          
O        O      0.537700000000     0.204366666667     0.888100000000     0          
O        O      0.535500000000     0.237233333333     0.844950000000     0          
O        O      0.484900000000     0.242433333333     0.820350000000     0          
O        O      0.549333333333     0.274666666667     0.800700000000     0          
O        O      0.605966666667     0.272633333333     0.784900000000     0          
O        O      0.534900000000     0.298000000000     0.931300000000     0          
O        O      0.535500000000     0.298266666667     0.844950000000     0          
O        O      0.570233333333     0.201566666667     0.931300000000     0          
O        O      0.570566666667     0.202166666667     0.844950000000     0          
O        O      0.368666666667     0.236900000000     0.931300000000     0          
O        O      0.368400000000     0.237233333333     0.844950000000     0          
O        O      0.465100000000     0.035333333333     0.931300000000     0          
O        O      0.464500000000     0.035066666667     0.844950000000     0          
O        O      0.429766666667     0.131766666667     0.931300000000     0          
O        O      0.429433333333     0.131166666667     0.844950000000     0          
O        O      0.631333333333     0.096433333333     0.931300000000     0          
O        O      0.631600000000     0.096100000000     0.844950000000     0          
O        O      0.368666666667     0.131766666667     0.568700000000     0          
O        O      0.368400000000     0.131166666667     0.655050000000     0          
O        O      0.570233333333     0.035333333333     0.568700000000     0          
O        O      0.570566666667     0.035066666667     0.655050000000     0          
O        O      0.534900000000     0.236900000000     0.568700000000     0          
O        O      0.535500000000     0.237233333333     0.655050000000     0          
O        O      0.631333333333     0.201566666667     0.568700000000     0          
O        O      0.631600000000     0.202166666667     0.655050000000     0          
O        O      0.429766666667     0.298000000000     0.568700000000     0          
O        O      0.429433333333     0.298266666667     0.655050000000     0          
O        O      0.465100000000     0.096433333333     0.568700000000     0          
O        O      0.464500000000     0.096100000000     0.655050000000     0          
O        O      0.555566666667     0.444433333333     0.000000000000     0          
O        O      0.514933333333     0.424133333333     0.042500000000     0          
O        O      0.465100000000     0.368666666667     0.068700000000     0          
O        O      0.514900000000     0.424133333333     0.094500000000     0          
O        O      0.555566666667     0.444433333333     0.136950000000     0          
O        O      0.462300000000     0.333333333333     0.111900000000     0          
O        O      0.500000000000     0.333333333333     0.070950000000     0          
O        O      0.500000000000     0.333333333333     0.152900000000     0          
O        O      0.464500000000     0.368400000000     0.155050000000     0          
O        O      0.515100000000     0.424200000000     0.179650000000     0          
O        O      0.450666666667     0.392000000000     0.199300000000     0          
O        O      0.394033333333     0.333333333333     0.215100000000     0          
O        O      0.432966666667     0.383166666667     0.250000000000     0          
O        O      0.444466666667     0.555566666667     0.000000000000     0          
O        O      0.424133333333     0.514933333333     0.042500000000     0          
O        O      0.429766666667     0.465100000000     0.068700000000     0          
O        O      0.424100000000     0.514900000000     0.094500000000     0          
O        O      0.444466666667     0.555566666667     0.136950000000     0          
O        O      0.462300000000     0.462300000000     0.111900000000     0          
O        O      0.500000000000     0.500000000000     0.070950000000     0          
O        O      0.500000000000     0.500000000000     0.152900000000     0          
O        O      0.429433333333     0.464500000000     0.155050000000     0          
O        O      0.424233333333     0.515100000000     0.179650000000     0          
O        O      0.392000000000     0.450666666667     0.199300000000     0          
O        O      0.394033333333     0.394033333333     0.215100000000     0          
O        O      0.383133333333     0.432966666667     0.250000000000     0          
O        O      0.575866666667     0.424133333333     0.042500000000     0          
O        O      0.631333333333     0.429766666667     0.068700000000     0          
O        O      0.575866666667     0.424100000000     0.094500000000     0          
O        O      0.333333333333     0.462300000000     0.111900000000     0          
O        O      0.333333333333     0.500000000000     0.070950000000     0          
O        O      0.333333333333     0.500000000000     0.152900000000     0          
O        O      0.631600000000     0.429433333333     0.155050000000     0          
O        O      0.575800000000     0.424233333333     0.179650000000     0          
O        O      0.608000000000     0.392000000000     0.199300000000     0          
O        O      0.333333333333     0.394033333333     0.215100000000     0          
O        O      0.616833333333     0.383133333333     0.250000000000     0          
O        O      0.485066666667     0.575866666667     0.042500000000     0          
O        O      0.534900000000     0.631333333333     0.068700000000     0          
O        O      0.485100000000     0.575866666667     0.094500000000     0          
O        O      0.537700000000     0.333333333333     0.111900000000     0          
O        O      0.535500000000     0.631600000000     0.155050000000     0          
O        O      0.484900000000     0.575800000000     0.179650000000     0          
O        O      0.549333333333     0.608000000000     0.199300000000     0          
O        O      0.605966666667     0.333333333333     0.215100000000     0          
O        O      0.567033333333     0.616833333333     0.250000000000     0          
O        O      0.575866666667     0.485066666667     0.042500000000     0          
O        O      0.570233333333     0.534900000000     0.068700000000     0          
O        O      0.575900000000     0.485100000000     0.094500000000     0          
O        O      0.537700000000     0.537700000000     0.111900000000     0          
O        O      0.570566666667     0.535500000000     0.155050000000     0          
O        O      0.575766666667     0.484900000000     0.179650000000     0          
O        O      0.608000000000     0.549333333333     0.199300000000     0          
O        O      0.605966666667     0.605966666667     0.215100000000     0          
O        O      0.616866666667     0.567033333333     0.250000000000     0          
O        O      0.424133333333     0.575866666667     0.042500000000     0          
O        O      0.368666666667     0.570233333333     0.068700000000     0          
O        O      0.424133333333     0.575900000000     0.094500000000     0          
O        O      0.333333333333     0.537700000000     0.111900000000     0          
O        O      0.368400000000     0.570566666667     0.155050000000     0          
O        O      0.424200000000     0.575766666667     0.179650000000     0          
O        O      0.392000000000     0.608000000000     0.199300000000     0          
O        O      0.333333333333     0.605966666667     0.215100000000     0          
O        O      0.383166666667     0.616866666667     0.250000000000     0          
O        O      0.575866666667     0.485066666667     0.457500000000     0          
O        O      0.631333333333     0.534900000000     0.431300000000     0          
O        O      0.575866666667     0.485100000000     0.405500000000     0          
O        O      0.555566666667     0.444433333333     0.363050000000     0          
O        O      0.333333333333     0.537700000000     0.388100000000     0          
O        O      0.333333333333     0.500000000000     0.429050000000     0          
O        O      0.333333333333     0.500000000000     0.347100000000     0          
O        O      0.631600000000     0.535500000000     0.344950000000     0          
O        O      0.575800000000     0.484900000000     0.320350000000     0          
O        O      0.608000000000     0.549333333333     0.300700000000     0          
O        O      0.333333333333     0.605966666667     0.284900000000     0          
O        O      0.424133333333     0.575866666667     0.457500000000     0          
O        O      0.429766666667     0.631333333333     0.431300000000     0          
O        O      0.424100000000     0.575866666667     0.405500000000     0          
O        O      0.444466666667     0.555566666667     0.363050000000     0          
O        O      0.462300000000     0.333333333333     0.388100000000     0          
O        O      0.500000000000     0.333333333333     0.429050000000     0          
O        O      0.500000000000     0.333333333333     0.347100000000     0          
O        O      0.429433333333     0.631600000000     0.344950000000     0          
O        O      0.424233333333     0.575800000000     0.320350000000     0          
O        O      0.392000000000     0.608000000000     0.300700000000     0          
O        O      0.394033333333     0.333333333333     0.284900000000     0          
O        O      0.514933333333     0.424133333333     0.457500000000     0          
O        O      0.465100000000     0.429766666667     0.431300000000     0          
O        O      0.514900000000     0.424100000000     0.405500000000     0          
O        O      0.462300000000     0.462300000000     0.388100000000     0          
O        O      0.500000000000     0.500000000000     0.429050000000     0          
O        O      0.500000000000     0.500000000000     0.347100000000     0          
O        O      0.464500000000     0.429433333333     0.344950000000     0          
O        O      0.515100000000     0.424233333333     0.320350000000     0          
O        O      0.450666666667     0.392000000000     0.300700000000     0          
O        O      0.394033333333     0.394033333333     0.284900000000     0          
O        O      0.424133333333     0.514933333333     0.457500000000     0          
O        O      0.368666666667     0.465100000000     0.431300000000     0          
O        O      0.424133333333     0.514900000000     0.405500000000     0          
O        O      0.333333333333     0.462300000000     0.388100000000     0          
O        O      0.368400000000     0.464500000000     0.344950000000     0          
O        O      0.424200000000     0.515100000000     0.320350000000     0          
O        O      0.392000000000     0.450666666667     0.300700000000     0          
O        O      0.333333333333     0.394033333333     0.284900000000     0          
O        O      0.575866666667     0.424133333333     0.457500000000     0          
O        O      0.570233333333     0.368666666667     0.431300000000     0          
O        O      0.575900000000     0.424133333333     0.405500000000     0          
O        O      0.537700000000     0.333333333333     0.388100000000     0          
O        O      0.570566666667     0.368400000000     0.344950000000     0          
O        O      0.575766666667     0.424200000000     0.320350000000     0          
O        O      0.608000000000     0.392000000000     0.300700000000     0          
O        O      0.605966666667     0.333333333333     0.284900000000     0          
O        O      0.485066666667     0.575866666667     0.457500000000     0          
O        O      0.534900000000     0.570233333333     0.431300000000     0          
O        O      0.485100000000     0.575900000000     0.405500000000     0          
O        O      0.537700000000     0.537700000000     0.388100000000     0          
O        O      0.535500000000     0.570566666667     0.344950000000     0          
O        O      0.484900000000     0.575766666667     0.320350000000     0          
O        O      0.549333333333     0.608000000000     0.300700000000     0          
O        O      0.605966666667     0.605966666667     0.284900000000     0          
O        O      0.534900000000     0.631333333333     0.431300000000     0          
O        O      0.535500000000     0.631600000000     0.344950000000     0          
O        O      0.570233333333     0.534900000000     0.431300000000     0          
O        O      0.570566666667     0.535500000000     0.344950000000     0          
O        O      0.368666666667     0.570233333333     0.431300000000     0          
O        O      0.368400000000     0.570566666667     0.344950000000     0          
O        O      0.465100000000     0.368666666667     0.431300000000     0          
O        O      0.464500000000     0.368400000000     0.344950000000     0          
O        O      0.429766666667     0.465100000000     0.431300000000     0          
O        O      0.429433333333     0.464500000000     0.344950000000     0          
O        O      0.631333333333     0.429766666667     0.431300000000     0          
O        O      0.631600000000     0.429433333333     0.344950000000     0          
O        O      0.368666666667     0.465100000000     0.068700000000     0          
O        O      0.368400000000     0.464500000000     0.155050000000     0          
O        O      0.570233333333     0.368666666667     0.068700000000     0          
O        O      0.570566666667     0.368400000000     0.155050000000     0          
O        O      0.534900000000     0.570233333333     0.068700000000     0          
O        O      0.535500000000     0.570566666667     0.155050000000     0          
O        O      0.631333333333     0.534900000000     0.068700000000     0          
O        O      0.631600000000     0.535500000000     0.155050000000     0          
O        O      0.429766666667     0.631333333333     0.068700000000     0          
O        O      0.429433333333     0.631600000000     0.155050000000     0          
O        O      0.465100000000     0.429766666667     0.068700000000     0          
O        O      0.464500000000     0.429433333333     0.155050000000     0          
O        O      0.555566666667     0.444433333333     0.500000000000     0          
O        O      0.514933333333     0.424133333333     0.542500000000     0          
O        O      0.465100000000     0.368666666667     0.568700000000     0          
O        O      0.514900000000     0.424133333333     0.594500000000     0          
O        O      0.555566666667     0.444433333333     0.636950000000     0          
O        O      0.462300000000     0.333333333333     0.611900000000     0          
O        O      0.500000000000     0.333333333333     0.570950000000     0          
O        O      0.500000000000     0.333333333333     0.652900000000     0          
O        O      0.464500000000     0.368400000000     0.655050000000     0          
O        O      0.515100000000     0.424200000000     0.679650000000     0          
O        O      0.450666666667     0.392000000000     0.699300000000     0          
O        O      0.394033333333     0.333333333333     0.715100000000     0          
O        O      0.432966666667     0.383166666667     0.750000000000     0          
O        O      0.444466666667     0.555566666667     0.500000000000     0          
O        O      0.424133333333     0.514933333333     0.542500000000     0          
O        O      0.429766666667     0.465100000000     0.568700000000     0          
O        O      0.424100000000     0.514900000000     0.594500000000     0          
O        O      0.444466666667     0.555566666667     0.636950000000     0          
O        O      0.462300000000     0.462300000000     0.611900000000     0          
O        O      0.500000000000     0.500000000000     0.570950000000     0          
O        O      0.500000000000     0.500000000000     0.652900000000     0          
O        O      0.429433333333     0.464500000000     0.655050000000     0          
O        O      0.424233333333     0.515100000000     0.679650000000     0          
O        O      0.392000000000     0.450666666667     0.699300000000     0          
O        O      0.394033333333     0.394033333333     0.715100000000     0          
O        O      0.383133333333     0.432966666667     0.750000000000     0          
O        O      0.575866666667     0.424133333333     0.542500000000     0          
O        O      0.631333333333     0.429766666667     0.568700000000     0          
O        O      0.575866666667     0.424100000000     0.594500000000     0          
O        O      0.333333333333     0.462300000000     0.611900000000     0          
O        O      0.333333333333     0.500000000000     0.570950000000     0          
O        O      0.333333333333     0.500000000000     0.652900000000     0          
O        O      0.631600000000     0.429433333333     0.655050000000     0          
O        O      0.575800000000     0.424233333333     0.679650000000     0          
O        O      0.608000000000     0.392000000000     0.699300000000     0          
O        O      0.333333333333     0.394033333333     0.715100000000     0          
O        O      0.616833333333     0.383133333333     0.750000000000     0          
O        O      0.485066666667     0.575866666667     0.542500000000     0          
O        O      0.534900000000     0.631333333333     0.568700000000     0          
O        O      0.485100000000     0.575866666667     0.594500000000     0          
O        O      0.537700000000     0.333333333333     0.611900000000     0          
O        O      0.535500000000     0.631600000000     0.655050000000     0          
O        O      0.484900000000     0.575800000000     0.679650000000     0          
O        O      0.549333333333     0.608000000000     0.699300000000     0          
O        O      0.605966666667     0.333333333333     0.715100000000     0          
O        O      0.567033333333     0.616833333333     0.750000000000     0          
O        O      0.575866666667     0.485066666667     0.542500000000     0          
O        O      0.570233333333     0.534900000000     0.568700000000     0          
O        O      0.575900000000     0.485100000000     0.594500000000     0          
O        O      0.537700000000     0.537700000000     0.611900000000     0          
O        O      0.570566666667     0.535500000000     0.655050000000     0          
O        O      0.575766666667     0.484900000000     0.679650000000     0          
O        O      0.608000000000     0.549333333333     0.699300000000     0          
O        O      0.605966666667     0.605966666667     0.715100000000     0          
O        O      0.616866666667     0.567033333333     0.750000000000     0          
O        O      0.424133333333     0.575866666667     0.542500000000     0          
O        O      0.368666666667     0.570233333333     0.568700000000     0          
O        O      0.424133333333     0.575900000000     0.594500000000     0          
O        O      0.333333333333     0.537700000000     0.611900000000     0          
O        O      0.368400000000     0.570566666667     0.655050000000     0          
O        O      0.424200000000     0.575766666667     0.679650000000     0          
O        O      0.392000000000     0.608000000000     0.699300000000     0          
O        O      0.333333333333     0.605966666667     0.715100000000     0          
O        O      0.383166666667     0.616866666667     0.750000000000     0          
O        O      0.575866666667     0.485066666667     0.957500000000     0          
O        O      0.631333333333     0.534900000000     0.931300000000     0          
O        O      0.575866666667     0.485100000000     0.905500000000     0          
O        O      0.555566666667     0.444433333333     0.863050000000     0          
O        O      0.333333333333     0.537700000000     0.888100000000     0          
O        O      0.333333333333     0.500000000000     0.929050000000     0          
O        O      0.333333333333     0.500000000000     0.847100000000     0          
O        O      0.631600000000     0.535500000000     0.844950000000     0          
O        O      0.575800000000     0.484900000000     0.820350000000     0          
O        O      0.608000000000     0.549333333333     0.800700000000     0          
O        O      0.333333333333     0.605966666667     0.784900000000     0          
O        O      0.424133333333     0.575866666667     0.957500000000     0          
O        O      0.429766666667     0.631333333333     0.931300000000     0          
O        O      0.424100000000     0.575866666667     0.905500000000     0          
O        O      0.444466666667     0.555566666667     0.863050000000     0          
O        O      0.462300000000     0.333333333333     0.888100000000     0          
O        O      0.500000000000     0.333333333333     0.929050000000     0          
O        O      0.500000000000     0.333333333333     0.847100000000     0          
O        O      0.429433333333     0.631600000000     0.844950000000     0          
O        O      0.424233333333     0.575800000000     0.820350000000     0          
O        O      0.392000000000     0.608000000000     0.800700000000     0          
O        O      0.394033333333     0.333333333333     0.784900000000     0          
O        O      0.514933333333     0.424133333333     0.957500000000     0          
O        O      0.465100000000     0.429766666667     0.931300000000     0          
O        O      0.514900000000     0.424100000000     0.905500000000     0          
O        O      0.462300000000     0.462300000000     0.888100000000     0          
O        O      0.500000000000     0.500000000000     0.929050000000     0          
O        O      0.500000000000     0.500000000000     0.847100000000     0          
O        O      0.464500000000     0.429433333333     0.844950000000     0          
O        O      0.515100000000     0.424233333333     0.820350000000     0          
O        O      0.450666666667     0.392000000000     0.800700000000     0          
O        O      0.394033333333     0.394033333333     0.784900000000     0          
O        O      0.424133333333     0.514933333333     0.957500000000     0          
O        O      0.368666666667     0.465100000000     0.931300000000     0          
O        O      0.424133333333     0.514900000000     0.905500000000     0          
O        O      0.333333333333     0.462300000000     0.888100000000     0          
O        O      0.368400000000     0.464500000000     0.844950000000     0          
O        O      0.424200000000     0.515100000000     0.820350000000     0          
O        O      0.392000000000     0.450666666667     0.800700000000     0          
O        O      0.333333333333     0.394033333333     0.784900000000     0          
O        O      0.575866666667     0.424133333333     0.957500000000     0          
O        O      0.570233333333     0.368666666667     0.931300000000     0          
O        O      0.575900000000     0.424133333333     0.905500000000     0          
O        O      0.537700000000     0.333333333333     0.888100000000     0          
O        O      0.570566666667     0.368400000000     0.844950000000     0          
O        O      0.575766666667     0.424200000000     0.820350000000     0          
O        O      0.608000000000     0.392000000000     0.800700000000     0          
O        O      0.605966666667     0.333333333333     0.784900000000     0          
O        O      0.485066666667     0.575866666667     0.957500000000     0          
O        O      0.534900000000     0.570233333333     0.931300000000     0          
O        O      0.485100000000     0.575900000000     0.905500000000     0          
O        O      0.537700000000     0.537700000000     0.888100000000     0          
O        O      0.535500000000     0.570566666667     0.844950000000     0          
O        O      0.484900000000     0.575766666667     0.820350000000     0          
O        O      0.549333333333     0.608000000000     0.800700000000     0          
O        O      0.605966666667     0.605966666667     0.784900000000     0          
O        O      0.534900000000     0.631333333333     0.931300000000     0          
O        O      0.535500000000     0.631600000000     0.844950000000     0          
O        O      0.570233333333     0.534900000000     0.931300000000     0          
O        O      0.570566666667     0.535500000000     0.844950000000     0          
O        O      0.368666666667     0.570233333333     0.931300000000     0          
O        O      0.368400000000     0.570566666667     0.844950000000     0          
O        O      0.465100000000     0.368666666667     0.931300000000     0          
O        O      0.464500000000     0.368400000000     0.844950000000     0          
O        O      0.429766666667     0.465100000000     0.931300000000     0          
O        O      0.429433333333     0.464500000000     0.844950000000     0          
O        O      0.631333333333     0.429766666667     0.931300000000     0          
O        O      0.631600000000     0.429433333333     0.844950000000     0          
O        O      0.368666666667     0.465100000000     0.568700000000     0          
O        O      0.368400000000     0.464500000000     0.655050000000     0          
O        O      0.570233333333     0.368666666667     0.568700000000     0          
O        O      0.570566666667     0.368400000000     0.655050000000     0          
O        O      0.534900000000     0.570233333333     0.568700000000     0          
O        O      0.535500000000     0.570566666667     0.655050000000     0          
O        O      0.631333333333     0.534900000000     0.568700000000     0          
O        O      0.631600000000     0.535500000000     0.655050000000     0          
O        O      0.429766666667     0.631333333333     0.568700000000     0          
O        O      0.429433333333     0.631600000000     0.655050000000     0          
O        O      0.465100000000     0.429766666667     0.568700000000     0          
O        O      0.464500000000     0.429433333333     0.655050000000     0          
O        O      0.555566666667     0.777766666667     0.000000000000     0          
O        O      0.514933333333     0.757466666667     0.042500000000     0          
O        O      0.465100000000     0.702000000000     0.068700000000     0          
O        O      0.514900000000     0.757466666667     0.094500000000     0          
O        O      0.555566666667     0.777766666667     0.136950000000     0          
O        O      0.462300000000     0.666666666667     0.111900000000     0          
O        O      0.500000000000     0.666666666667     0.070950000000     0          
O        O      0.500000000000     0.666666666667     0.152900000000     0          
O        O      0.464500000000     0.701733333333     0.155050000000     0          
O        O      0.515100000000     0.757533333333     0.179650000000     0          
O        O      0.450666666667     0.725333333333     0.199300000000     0          
O        O      0.394033333333     0.666666666667     0.215100000000     0          
O        O      0.432966666667     0.716500000000     0.250000000000     0          
O        O      0.444466666667     0.888900000000     0.000000000000     0          
O        O      0.424133333333     0.848266666667     0.042500000000     0          
O        O      0.429766666667     0.798433333333     0.068700000000     0          
O        O      0.424100000000     0.848233333333     0.094500000000     0          
O        O      0.444466666667     0.888900000000     0.136950000000     0          
O        O      0.462300000000     0.795633333333     0.111900000000     0          
O        O      0.500000000000     0.833333333333     0.070950000000     0          
O        O      0.500000000000     0.833333333333     0.152900000000     0          
O        O      0.429433333333     0.797833333333     0.155050000000     0          
O        O      0.424233333333     0.848433333333     0.179650000000     0          
O        O      0.392000000000     0.784000000000     0.199300000000     0          
O        O      0.394033333333     0.727366666667     0.215100000000     0          
O        O      0.383133333333     0.766300000000     0.250000000000     0          
O        O      0.575866666667     0.757466666667     0.042500000000     0          
O        O      0.631333333333     0.763100000000     0.068700000000     0          
O        O      0.575866666667     0.757433333333     0.094500000000     0          
O        O      0.333333333333     0.795633333333     0.111900000000     0          
O        O      0.333333333333     0.833333333333     0.070950000000     0          
O        O      0.333333333333     0.833333333333     0.152900000000     0          
O        O      0.631600000000     0.762766666667     0.155050000000     0          
O        O      0.575800000000     0.757566666667     0.179650000000     0          
O        O      0.608000000000     0.725333333333     0.199300000000     0          
O        O      0.333333333333     0.727366666667     0.215100000000     0          
O        O      0.616833333333     0.716466666667     0.250000000000     0          
O        O      0.485066666667     0.909200000000     0.042500000000     0          
O        O      0.534900000000     0.964666666667     0.068700000000     0          
O        O      0.485100000000     0.909200000000     0.094500000000     0          
O        O      0.537700000000     0.666666666667     0.111900000000     0          
O        O      0.535500000000     0.964933333333     0.155050000000     0          
O        O      0.484900000000     0.909133333333     0.179650000000     0          
O        O      0.549333333333     0.941333333333     0.199300000000     0          
O        O      0.605966666667     0.666666666667     0.215100000000     0          
O        O      0.567033333333     0.950166666667     0.250000000000     0          
O        O      0.575866666667     0.818400000000     0.042500000000     0          
O        O      0.570233333333     0.868233333333     0.068700000000     0          
O        O      0.575900000000     0.818433333333     0.094500000000     0          
O        O      0.537700000000     0.871033333333     0.111900000000     0          
O        O      0.570566666667     0.868833333333     0.155050000000     0          
O        O      0.575766666667     0.818233333333     0.179650000000     0          
O        O      0.608000000000     0.882666666667     0.199300000000     0          
O        O      0.605966666667     0.939300000000     0.215100000000     0          
O        O      0.616866666667     0.900366666667     0.250000000000     0          
O        O      0.424133333333     0.909200000000     0.042500000000     0          
O        O      0.368666666667     0.903566666667     0.068700000000     0          
O        O      0.424133333333     0.909233333333     0.094500000000     0          
O        O      0.333333333333     0.871033333333     0.111900000000     0          
O        O      0.368400000000     0.903900000000     0.155050000000     0          
O        O      0.424200000000     0.909100000000     0.179650000000     0          
O        O      0.392000000000     0.941333333333     0.199300000000     0          
O        O      0.333333333333     0.939300000000     0.215100000000     0          
O        O      0.383166666667     0.950200000000     0.250000000000     0          
O        O      0.575866666667     0.818400000000     0.457500000000     0          
O        O      0.631333333333     0.868233333333     0.431300000000     0          
O        O      0.575866666667     0.818433333333     0.405500000000     0          
O        O      0.555566666667     0.777766666667     0.363050000000     0          
O        O      0.333333333333     0.871033333333     0.388100000000     0          
O        O      0.333333333333     0.833333333333     0.429050000000     0          
O        O      0.333333333333     0.833333333333     0.347100000000     0          
O        O      0.631600000000     0.868833333333     0.344950000000     0          
O        O      0.575800000000     0.818233333333     0.320350000000     0          
O        O      0.608000000000     0.882666666667     0.300700000000     0          
O        O      0.333333333333     0.939300000000     0.284900000000     0          
O        O      0.424133333333     0.909200000000     0.457500000000     0          
O        O      0.429766666667     0.964666666667     0.431300000000     0          
O        O      0.424100000000     0.909200000000     0.405500000000     0          
O        O      0.444466666667     0.888900000000     0.363050000000     0          
O        O      0.462300000000     0.666666666667     0.388100000000     0          
O        O      0.500000000000     0.666666666667     0.429050000000     0          
O        O      0.500000000000     0.666666666667     0.347100000000     0          
O        O      0.429433333333     0.964933333333     0.344950000000     0          
O        O      0.424233333333     0.909133333333     0.320350000000     0          
O        O      0.392000000000     0.941333333333     0.300700000000     0          
O        O      0.394033333333     0.666666666667     0.284900000000     0          
O        O      0.514933333333     0.757466666667     0.457500000000     0          
O        O      0.465100000000     0.763100000000     0.431300000000     0          
O        O      0.514900000000     0.757433333333     0.405500000000     0          
O        O      0.462300000000     0.795633333333     0.388100000000     0          
O        O      0.500000000000     0.833333333333     0.429050000000     0          
O        O      0.500000000000     0.833333333333     0.347100000000     0          
O        O      0.464500000000     0.762766666667     0.344950000000     0          
O        O      0.515100000000     0.757566666667     0.320350000000     0          
O        O      0.450666666667     0.725333333333     0.300700000000     0          
O        O      0.394033333333     0.727366666667     0.284900000000     0          
O        O      0.424133333333     0.848266666667     0.457500000000     0          
O        O      0.368666666667     0.798433333333     0.431300000000     0          
O        O      0.424133333333     0.848233333333     0.405500000000     0          
O        O      0.333333333333     0.795633333333     0.388100000000     0          
O        O      0.368400000000     0.797833333333     0.344950000000     0          
O        O      0.424200000000     0.848433333333     0.320350000000     0          
O        O      0.392000000000     0.784000000000     0.300700000000     0          
O        O      0.333333333333     0.727366666667     0.284900000000     0          
O        O      0.575866666667     0.757466666667     0.457500000000     0          
O        O      0.570233333333     0.702000000000     0.431300000000     0          
O        O      0.575900000000     0.757466666667     0.405500000000     0          
O        O      0.537700000000     0.666666666667     0.388100000000     0          
O        O      0.570566666667     0.701733333333     0.344950000000     0          
O        O      0.575766666667     0.757533333333     0.320350000000     0          
O        O      0.608000000000     0.725333333333     0.300700000000     0          
O        O      0.605966666667     0.666666666667     0.284900000000     0          
O        O      0.485066666667     0.909200000000     0.457500000000     0          
O        O      0.534900000000     0.903566666667     0.431300000000     0          
O        O      0.485100000000     0.909233333333     0.405500000000     0          
O        O      0.537700000000     0.871033333333     0.388100000000     0          
O        O      0.535500000000     0.903900000000     0.344950000000     0          
O        O      0.484900000000     0.909100000000     0.320350000000     0          
O        O      0.549333333333     0.941333333333     0.300700000000     0          
O        O      0.605966666667     0.939300000000     0.284900000000     0          
O        O      0.534900000000     0.964666666667     0.431300000000     0          
O        O      0.535500000000     0.964933333333     0.344950000000     0          
O        O      0.570233333333     0.868233333333     0.431300000000     0          
O        O      0.570566666667     0.868833333333     0.344950000000     0          
O        O      0.368666666667     0.903566666667     0.431300000000     0          
O        O      0.368400000000     0.903900000000     0.344950000000     0          
O        O      0.465100000000     0.702000000000     0.431300000000     0          
O        O      0.464500000000     0.701733333333     0.344950000000     0          
O        O      0.429766666667     0.798433333333     0.431300000000     0          
O        O      0.429433333333     0.797833333333     0.344950000000     0          
O        O      0.631333333333     0.763100000000     0.431300000000     0          
O        O      0.631600000000     0.762766666667     0.344950000000     0          
O        O      0.368666666667     0.798433333333     0.068700000000     0          
O        O      0.368400000000     0.797833333333     0.155050000000     0          
O        O      0.570233333333     0.702000000000     0.068700000000     0          
O        O      0.570566666667     0.701733333333     0.155050000000     0          
O        O      0.534900000000     0.903566666667     0.068700000000     0          
O        O      0.535500000000     0.903900000000     0.155050000000     0          
O        O      0.631333333333     0.868233333333     0.068700000000     0          
O        O      0.631600000000     0.868833333333     0.155050000000     0          
O        O      0.429766666667     0.964666666667     0.068700000000     0          
O        O      0.429433333333     0.964933333333     0.155050000000     0          
O        O      0.465100000000     0.763100000000     0.068700000000     0          
O        O      0.464500000000     0.762766666667     0.155050000000     0          
O        O      0.555566666667     0.777766666667     0.500000000000     0          
O        O      0.514933333333     0.757466666667     0.542500000000     0          
O        O      0.465100000000     0.702000000000     0.568700000000     0          
O        O      0.514900000000     0.757466666667     0.594500000000     0          
O        O      0.555566666667     0.777766666667     0.636950000000     0          
O        O      0.462300000000     0.666666666667     0.611900000000     0          
O        O      0.500000000000     0.666666666667     0.570950000000     0          
O        O      0.500000000000     0.666666666667     0.652900000000     0          
O        O      0.464500000000     0.701733333333     0.655050000000     0          
O        O      0.515100000000     0.757533333333     0.679650000000     0          
O        O      0.450666666667     0.725333333333     0.699300000000     0          
O        O      0.394033333333     0.666666666667     0.715100000000     0          
O        O      0.432966666667     0.716500000000     0.750000000000     0          
O        O      0.444466666667     0.888900000000     0.500000000000     0          
O        O      0.424133333333     0.848266666667     0.542500000000     0          
O        O      0.429766666667     0.798433333333     0.568700000000     0          
O        O      0.424100000000     0.848233333333     0.594500000000     0          
O        O      0.444466666667     0.888900000000     0.636950000000     0          
O        O      0.462300000000     0.795633333333     0.611900000000     0          
O        O      0.500000000000     0.833333333333     0.570950000000     0          
O        O      0.500000000000     0.833333333333     0.652900000000     0          
O        O      0.429433333333     0.797833333333     0.655050000000     0          
O        O      0.424233333333     0.848433333333     0.679650000000     0          
O        O      0.392000000000     0.784000000000     0.699300000000     0          
O        O      0.394033333333     0.727366666667     0.715100000000     0          
O        O      0.383133333333     0.766300000000     0.750000000000     0          
O        O      0.575866666667     0.757466666667     0.542500000000     0          
O        O      0.631333333333     0.763100000000     0.568700000000     0          
O        O      0.575866666667     0.757433333333     0.594500000000     0          
O        O      0.333333333333     0.795633333333     0.611900000000     0          
O        O      0.333333333333     0.833333333333     0.570950000000     0          
O        O      0.333333333333     0.833333333333     0.652900000000     0          
O        O      0.631600000000     0.762766666667     0.655050000000     0          
O        O      0.575800000000     0.757566666667     0.679650000000     0          
O        O      0.608000000000     0.725333333333     0.699300000000     0          
O        O      0.333333333333     0.727366666667     0.715100000000     0          
O        O      0.616833333333     0.716466666667     0.750000000000     0          
O        O      0.485066666667     0.909200000000     0.542500000000     0          
O        O      0.534900000000     0.964666666667     0.568700000000     0          
O        O      0.485100000000     0.909200000000     0.594500000000     0          
O        O      0.537700000000     0.666666666667     0.611900000000     0          
O        O      0.535500000000     0.964933333333     0.655050000000     0          
O        O      0.484900000000     0.909133333333     0.679650000000     0          
O        O      0.549333333333     0.941333333333     0.699300000000     0          
O        O      0.605966666667     0.666666666667     0.715100000000     0          
O        O      0.567033333333     0.950166666667     0.750000000000     0          
O        O      0.575866666667     0.818400000000     0.542500000000     0          
O        O      0.570233333333     0.868233333333     0.568700000000     0          
O        O      0.575900000000     0.818433333333     0.594500000000     0          
O        O      0.537700000000     0.871033333333     0.611900000000     0          
O        O      0.570566666667     0.868833333333     0.655050000000     0          
O        O      0.575766666667     0.818233333333     0.679650000000     0          
O        O      0.608000000000     0.882666666667     0.699300000000     0          
O        O      0.605966666667     0.939300000000     0.715100000000     0          
O        O      0.616866666667     0.900366666667     0.750000000000     0          
O        O      0.424133333333     0.909200000000     0.542500000000     0          
O        O      0.368666666667     0.903566666667     0.568700000000     0          
O        O      0.424133333333     0.909233333333     0.594500000000     0          
O        O      0.333333333333     0.871033333333     0.611900000000     0          
O        O      0.368400000000     0.903900000000     0.655050000000     0          
O        O      0.424200000000     0.909100000000     0.679650000000     0          
O        O      0.392000000000     0.941333333333     0.699300000000     0          
O        O      0.333333333333     0.939300000000     0.715100000000     0          
O        O      0.383166666667     0.950200000000     0.750000000000     0          
O        O      0.575866666667     0.818400000000     0.957500000000     0          
O        O      0.631333333333     0.868233333333     0.931300000000     0          
O        O      0.575866666667     0.818433333333     0.905500000000     0          
O        O      0.555566666667     0.777766666667     0.863050000000     0          
O        O      0.333333333333     0.871033333333     0.888100000000     0          
O        O      0.333333333333     0.833333333333     0.929050000000     0          
O        O      0.333333333333     0.833333333333     0.847100000000     0          
O        O      0.631600000000     0.868833333333     0.844950000000     0          
O        O      0.575800000000     0.818233333333     0.820350000000     0          
O        O      0.608000000000     0.882666666667     0.800700000000     0          
O        O      0.333333333333     0.939300000000     0.784900000000     0          
O        O      0.424133333333     0.909200000000     0.957500000000     0          
O        O      0.429766666667     0.964666666667     0.931300000000     0          
O        O      0.424100000000     0.909200000000     0.905500000000     0          
O        O      0.444466666667     0.888900000000     0.863050000000     0          
O        O      0.462300000000     0.666666666667     0.888100000000     0          
O        O      0.500000000000     0.666666666667     0.929050000000     0          
O        O      0.500000000000     0.666666666667     0.847100000000     0          
O        O      0.429433333333     0.964933333333     0.844950000000     0          
O        O      0.424233333333     0.909133333333     0.820350000000     0          
O        O      0.392000000000     0.941333333333     0.800700000000     0          
O        O      0.394033333333     0.666666666667     0.784900000000     0          
O        O      0.514933333333     0.757466666667     0.957500000000     0          
O        O      0.465100000000     0.763100000000     0.931300000000     0          
O        O      0.514900000000     0.757433333333     0.905500000000     0          
O        O      0.462300000000     0.795633333333     0.888100000000     0          
O        O      0.500000000000     0.833333333333     0.929050000000     0          
O        O      0.500000000000     0.833333333333     0.847100000000     0          
O        O      0.464500000000     0.762766666667     0.844950000000     0          
O        O      0.515100000000     0.757566666667     0.820350000000     0          
O        O      0.450666666667     0.725333333333     0.800700000000     0          
O        O      0.394033333333     0.727366666667     0.784900000000     0          
O        O      0.424133333333     0.848266666667     0.957500000000     0          
O        O      0.368666666667     0.798433333333     0.931300000000     0          
O        O      0.424133333333     0.848233333333     0.905500000000     0          
O        O      0.333333333333     0.795633333333     0.888100000000     0          
O        O      0.368400000000     0.797833333333     0.844950000000     0          
O        O      0.424200000000     0.848433333333     0.820350000000     0          
O        O      0.392000000000     0.784000000000     0.800700000000     0          
O        O      0.333333333333     0.727366666667     0.784900000000     0          
O        O      0.575866666667     0.757466666667     0.957500000000     0          
O        O      0.570233333333     0.702000000000     0.931300000000     0          
O        O      0.575900000000     0.757466666667     0.905500000000     0          
O        O      0.537700000000     0.666666666667     0.888100000000     0          
O        O      0.570566666667     0.701733333333     0.844950000000     0          
O        O      0.575766666667     0.757533333333     0.820350000000     0          
O        O      0.608000000000     0.725333333333     0.800700000000     0          
O        O      0.605966666667     0.666666666667     0.784900000000     0          
O        O      0.485066666667     0.909200000000     0.957500000000     0          
O        O      0.534900000000     0.903566666667     0.931300000000     0          
O        O      0.485100000000     0.909233333333     0.905500000000     0          
O        O      0.537700000000     0.871033333333     0.888100000000     0          
O        O      0.535500000000     0.903900000000     0.844950000000     0          
O        O      0.484900000000     0.909100000000     0.820350000000     0          
O        O      0.549333333333     0.941333333333     0.800700000000     0          
O        O      0.605966666667     0.939300000000     0.784900000000     0          
O        O      0.534900000000     0.964666666667     0.931300000000     0          
O        O      0.535500000000     0.964933333333     0.844950000000     0          
O        O      0.570233333333     0.868233333333     0.931300000000     0          
O        O      0.570566666667     0.868833333333     0.844950000000     0          
O        O      0.368666666667     0.903566666667     0.931300000000     0          
O        O      0.368400000000     0.903900000000     0.844950000000     0          
O        O      0.465100000000     0.702000000000     0.931300000000     0          
O        O      0.464500000000     0.701733333333     0.844950000000     0          
O        O      0.429766666667     0.798433333333     0.931300000000     0          
O        O      0.429433333333     0.797833333333     0.844950000000     0          
O        O      0.631333333333     0.763100000000     0.931300000000     0          
O        O      0.631600000000     0.762766666667     0.844950000000     0          
O        O      0.368666666667     0.798433333333     0.568700000000     0          
O        O      0.368400000000     0.797833333333     0.655050000000     0          
O        O      0.570233333333     0.702000000000     0.568700000000     0          
O        O      0.570566666667     0.701733333333     0.655050000000     0          
O        O      0.534900000000     0.903566666667     0.568700000000     0          
O        O      0.535500000000     0.903900000000     0.655050000000     0          
O        O      0.631333333333     0.868233333333     0.568700000000     0          
O        O      0.631600000000     0.868833333333     0.655050000000     0          
O        O      0.429766666667     0.964666666667     0.568700000000     0          
O        O      0.429433333333     0.964933333333     0.655050000000     0          
O        O      0.465100000000     0.763100000000     0.568700000000     0          
O        O      0.464500000000     0.762766666667     0.655050000000     0          
O        O      0.888900000000     0.111100000000     0.000000000000     0          
O        O      0.848266666667     0.090800000000     0.042500000000     0          
O        O      0.798433333333     0.035333333333     0.068700000000     0          
O        O      0.848233333333     0.090800000000     0.094500000000     0          
O        O      0.888900000000     0.111100000000     0.136950000000     0          
O        O      0.795633333333     0.000000000000     0.111900000000     0          
O        O      0.833333333333     0.000000000000     0.070950000000     0          
O        O      0.833333333333     0.000000000000     0.152900000000     0          
O        O      0.797833333333     0.035066666667     0.155050000000     0          
O        O      0.848433333333     0.090866666667     0.179650000000     0          
O        O      0.784000000000     0.058666666667     0.199300000000     0          
O        O      0.727366666667     0.000000000000     0.215100000000     0          
O        O      0.766300000000     0.049833333333     0.250000000000     0          
O        O      0.777800000000     0.222233333333     0.000000000000     0          
O        O      0.757466666667     0.181600000000     0.042500000000     0          
O        O      0.763100000000     0.131766666667     0.068700000000     0          
O        O      0.757433333333     0.181566666667     0.094500000000     0          
O        O      0.777800000000     0.222233333333     0.136950000000     0          
O        O      0.795633333333     0.128966666667     0.111900000000     0          
O        O      0.833333333333     0.166666666667     0.070950000000     0          
O        O      0.833333333333     0.166666666667     0.152900000000     0          
O        O      0.762766666667     0.131166666667     0.155050000000     0          
O        O      0.757566666667     0.181766666667     0.179650000000     0          
O        O      0.725333333333     0.117333333333     0.199300000000     0          
O        O      0.727366666667     0.060700000000     0.215100000000     0          
O        O      0.716466666667     0.099633333333     0.250000000000     0          
O        O      0.909200000000     0.090800000000     0.042500000000     0          
O        O      0.964666666667     0.096433333333     0.068700000000     0          
O        O      0.909200000000     0.090766666667     0.094500000000     0          
O        O      0.666666666667     0.128966666667     0.111900000000     0          
O        O      0.666666666667     0.166666666667     0.070950000000     0          
O        O      0.666666666667     0.166666666667     0.152900000000     0          
O        O      0.964933333333     0.096100000000     0.155050000000     0          
O        O      0.909133333333     0.090900000000     0.179650000000     0          
O        O      0.941333333333     0.058666666667     0.199300000000     0          
O        O      0.666666666667     0.060700000000     0.215100000000     0          
O        O      0.950166666667     0.049800000000     0.250000000000     0          
O        O      0.818400000000     0.242533333333     0.042500000000     0          
O        O      0.868233333333     0.298000000000     0.068700000000     0          
O        O      0.818433333333     0.242533333333     0.094500000000     0          
O        O      0.871033333333     0.000000000000     0.111900000000     0          
O        O      0.868833333333     0.298266666667     0.155050000000     0          
O        O      0.818233333333     0.242466666667     0.179650000000     0          
O        O      0.882666666667     0.274666666667     0.199300000000     0          
O        O      0.939300000000     0.000000000000     0.215100000000     0          
O        O      0.900366666667     0.283500000000     0.250000000000     0          
O        O      0.909200000000     0.151733333333     0.042500000000     0          
O        O      0.903566666667     0.201566666667     0.068700000000     0          
O        O      0.909233333333     0.151766666667     0.094500000000     0          
O        O      0.871033333333     0.204366666667     0.111900000000     0          
O        O      0.903900000000     0.202166666667     0.155050000000     0          
O        O      0.909100000000     0.151566666667     0.179650000000     0          
O        O      0.941333333333     0.216000000000     0.199300000000     0          
O        O      0.939300000000     0.272633333333     0.215100000000     0          
O        O      0.950200000000     0.233700000000     0.250000000000     0          
O        O      0.757466666667     0.242533333333     0.042500000000     0          
O        O      0.702000000000     0.236900000000     0.068700000000     0          
O        O      0.757466666667     0.242566666667     0.094500000000     0          
O        O      0.666666666667     0.204366666667     0.111900000000     0          
O        O      0.701733333333     0.237233333333     0.155050000000     0          
O        O      0.757533333333     0.242433333333     0.179650000000     0          
O        O      0.725333333333     0.274666666667     0.199300000000     0          
O        O      0.666666666667     0.272633333333     0.215100000000     0          
O        O      0.716500000000     0.283533333333     0.250000000000     0          
O        O      0.909200000000     0.151733333333     0.457500000000     0          
O        O      0.964666666667     0.201566666667     0.431300000000     0          
O        O      0.909200000000     0.151766666667     0.405500000000     0          
O        O      0.888900000000     0.111100000000     0.363050000000     0          
O        O      0.666666666667     0.204366666667     0.388100000000     0          
O        O      0.666666666667     0.166666666667     0.429050000000     0          
O        O      0.666666666667     0.166666666667     0.347100000000     0          
O        O      0.964933333333     0.202166666667     0.344950000000     0          
O        O      0.909133333333     0.151566666667     0.320350000000     0          
O        O      0.941333333333     0.216000000000     0.300700000000     0          
O        O      0.666666666667     0.272633333333     0.284900000000     0          
O        O      0.757466666667     0.242533333333     0.457500000000     0          
O        O      0.763100000000     0.298000000000     0.431300000000     0          
O        O      0.757433333333     0.242533333333     0.405500000000     0          
O        O      0.777800000000     0.222233333333     0.363050000000     0          
O        O      0.795633333333     0.000000000000     0.388100000000     0          
O        O      0.833333333333     0.000000000000     0.429050000000     0          
O        O      0.833333333333     0.000000000000     0.347100000000     0          
O        O      0.762766666667     0.298266666667     0.344950000000     0          
O        O      0.757566666667     0.242466666667     0.320350000000     0          
O        O      0.725333333333     0.274666666667     0.300700000000     0          
O        O      0.727366666667     0.000000000000     0.284900000000     0          
O        O      0.848266666667     0.090800000000     0.457500000000     0          
O        O      0.798433333333     0.096433333333     0.431300000000     0          
O        O      0.848233333333     0.090766666667     0.405500000000     0          
O        O      0.795633333333     0.128966666667     0.388100000000     0          
O        O      0.833333333333     0.166666666667     0.429050000000     0          
O        O      0.833333333333     0.166666666667     0.347100000000     0          
O        O      0.797833333333     0.096100000000     0.344950000000     0          
O        O      0.848433333333     0.090900000000     0.320350000000     0          
O        O      0.784000000000     0.058666666667     0.300700000000     0          
O        O      0.727366666667     0.060700000000     0.284900000000     0          
O        O      0.757466666667     0.181600000000     0.457500000000     0          
O        O      0.702000000000     0.131766666667     0.431300000000     0          
O        O      0.757466666667     0.181566666667     0.405500000000     0          
O        O      0.666666666667     0.128966666667     0.388100000000     0          
O        O      0.701733333333     0.131166666667     0.344950000000     0          
O        O      0.757533333333     0.181766666667     0.320350000000     0          
O        O      0.725333333333     0.117333333333     0.300700000000     0          
O        O      0.666666666667     0.060700000000     0.284900000000     0          
O        O      0.909200000000     0.090800000000     0.457500000000     0          
O        O      0.903566666667     0.035333333333     0.431300000000     0          
O        O      0.909233333333     0.090800000000     0.405500000000     0          
O        O      0.871033333333     0.000000000000     0.388100000000     0          
O        O      0.903900000000     0.035066666667     0.344950000000     0          
O        O      0.909100000000     0.090866666667     0.320350000000     0          
O        O      0.941333333333     0.058666666667     0.300700000000     0          
O        O      0.939300000000     0.000000000000     0.284900000000     0          
O        O      0.818400000000     0.242533333333     0.457500000000     0          
O        O      0.868233333333     0.236900000000     0.431300000000     0          
O        O      0.818433333333     0.242566666667     0.405500000000     0          
O        O      0.871033333333     0.204366666667     0.388100000000     0          
O        O      0.868833333333     0.237233333333     0.344950000000     0          
O        O      0.818233333333     0.242433333333     0.320350000000     0          
O        O      0.882666666667     0.274666666667     0.300700000000     0          
O        O      0.939300000000     0.272633333333     0.284900000000     0          
O        O      0.868233333333     0.298000000000     0.431300000000     0          
O        O      0.868833333333     0.298266666667     0.344950000000     0          
O        O      0.903566666667     0.201566666667     0.431300000000     0          
O        O      0.903900000000     0.202166666667     0.344950000000     0          
O        O      0.702000000000     0.236900000000     0.431300000000     0          
O        O      0.701733333333     0.237233333333     0.344950000000     0          
O        O      0.798433333333     0.035333333333     0.431300000000     0          
O        O      0.797833333333     0.035066666667     0.344950000000     0          
O        O      0.763100000000     0.131766666667     0.431300000000     0          
O        O      0.762766666667     0.131166666667     0.344950000000     0          
O        O      0.964666666667     0.096433333333     0.431300000000     0          
O        O      0.964933333333     0.096100000000     0.344950000000     0          
O        O      0.702000000000     0.131766666667     0.068700000000     0          
O        O      0.701733333333     0.131166666667     0.155050000000     0          
O        O      0.903566666667     0.035333333333     0.068700000000     0          
O        O      0.903900000000     0.035066666667     0.155050000000     0          
O        O      0.868233333333     0.236900000000     0.068700000000     0          
O        O      0.868833333333     0.237233333333     0.155050000000     0          
O        O      0.964666666667     0.201566666667     0.068700000000     0          
O        O      0.964933333333     0.202166666667     0.155050000000     0          
O        O      0.763100000000     0.298000000000     0.068700000000     0          
O        O      0.762766666667     0.298266666667     0.155050000000     0          
O        O      0.798433333333     0.096433333333     0.068700000000     0          
O        O      0.797833333333     0.096100000000     0.155050000000     0          
O        O      0.888900000000     0.111100000000     0.500000000000     0          
O        O      0.848266666667     0.090800000000     0.542500000000     0          
O        O      0.798433333333     0.035333333333     0.568700000000     0          
O        O      0.848233333333     0.090800000000     0.594500000000     0          
O        O      0.888900000000     0.111100000000     0.636950000000     0          
O        O      0.795633333333     0.000000000000     0.611900000000     0          
O        O      0.833333333333     0.000000000000     0.570950000000     0          
O        O      0.833333333333     0.000000000000     0.652900000000     0          
O        O      0.797833333333     0.035066666667     0.655050000000     0          
O        O      0.848433333333     0.090866666667     0.679650000000     0          
O        O      0.784000000000     0.058666666667     0.699300000000     0          
O        O      0.727366666667     0.000000000000     0.715100000000     0          
O        O      0.766300000000     0.049833333333     0.750000000000     0          
O        O      0.777800000000     0.222233333333     0.500000000000     0          
O        O      0.757466666667     0.181600000000     0.542500000000     0          
O        O      0.763100000000     0.131766666667     0.568700000000     0          
O        O      0.757433333333     0.181566666667     0.594500000000     0          
O        O      0.777800000000     0.222233333333     0.636950000000     0          
O        O      0.795633333333     0.128966666667     0.611900000000     0          
O        O      0.833333333333     0.166666666667     0.570950000000     0          
O        O      0.833333333333     0.166666666667     0.652900000000     0          
O        O      0.762766666667     0.131166666667     0.655050000000     0          
O        O      0.757566666667     0.181766666667     0.679650000000     0          
O        O      0.725333333333     0.117333333333     0.699300000000     0          
O        O      0.727366666667     0.060700000000     0.715100000000     0          
O        O      0.716466666667     0.099633333333     0.750000000000     0          
O        O      0.909200000000     0.090800000000     0.542500000000     0          
O        O      0.964666666667     0.096433333333     0.568700000000     0          
O        O      0.909200000000     0.090766666667     0.594500000000     0          
O        O      0.666666666667     0.128966666667     0.611900000000     0          
O        O      0.666666666667     0.166666666667     0.570950000000     0          
O        O      0.666666666667     0.166666666667     0.652900000000     0          
O        O      0.964933333333     0.096100000000     0.655050000000     0          
O        O      0.909133333333     0.090900000000     0.679650000000     0          
O        O      0.941333333333     0.058666666667     0.699300000000     0          
O        O      0.666666666667     0.060700000000     0.715100000000     0          
O        O      0.950166666667     0.049800000000     0.750000000000     0          
O        O      0.818400000000     0.242533333333     0.542500000000     0          
O        O      0.868233333333     0.298000000000     0.568700000000     0          
O        O      0.818433333333     0.242533333333     0.594500000000     0          
O        O      0.871033333333     0.000000000000     0.611900000000     0          
O        O      0.868833333333     0.298266666667     0.655050000000     0          
O        O      0.818233333333     0.242466666667     0.679650000000     0          
O        O      0.882666666667     0.274666666667     0.699300000000     0          
O        O      0.939300000000     0.000000000000     0.715100000000     0          
O        O      0.900366666667     0.283500000000     0.750000000000     0          
O        O      0.909200000000     0.151733333333     0.542500000000     0          
O        O      0.903566666667     0.201566666667     0.568700000000     0          
O        O      0.909233333333     0.151766666667     0.594500000000     0          
O        O      0.871033333333     0.204366666667     0.611900000000     0          
O        O      0.903900000000     0.202166666667     0.655050000000     0          
O        O      0.909100000000     0.151566666667     0.679650000000     0          
O        O      0.941333333333     0.216000000000     0.699300000000     0          
O        O      0.939300000000     0.272633333333     0.715100000000     0          
O        O      0.950200000000     0.233700000000     0.750000000000     0          
O        O      0.757466666667     0.242533333333     0.542500000000     0          
O        O      0.702000000000     0.236900000000     0.568700000000     0          
O        O      0.757466666667     0.242566666667     0.594500000000     0          
O        O      0.666666666667     0.204366666667     0.611900000000     0          
O        O      0.701733333333     0.237233333333     0.655050000000     0          
O        O      0.757533333333     0.242433333333     0.679650000000     0          
O        O      0.725333333333     0.274666666667     0.699300000000     0          
O        O      0.666666666667     0.272633333333     0.715100000000     0          
O        O      0.716500000000     0.283533333333     0.750000000000     0          
O        O      0.909200000000     0.151733333333     0.957500000000     0          
O        O      0.964666666667     0.201566666667     0.931300000000     0          
O        O      0.909200000000     0.151766666667     0.905500000000     0          
O        O      0.888900000000     0.111100000000     0.863050000000     0          
O        O      0.666666666667     0.204366666667     0.888100000000     0          
O        O      0.666666666667     0.166666666667     0.929050000000     0          
O        O      0.666666666667     0.166666666667     0.847100000000     0          
O        O      0.964933333333     0.202166666667     0.844950000000     0          
O        O      0.909133333333     0.151566666667     0.820350000000     0          
O        O      0.941333333333     0.216000000000     0.800700000000     0          
O        O      0.666666666667     0.272633333333     0.784900000000     0          
O        O      0.757466666667     0.242533333333     0.957500000000     0          
O        O      0.763100000000     0.298000000000     0.931300000000     0          
O        O      0.757433333333     0.242533333333     0.905500000000     0          
O        O      0.777800000000     0.222233333333     0.863050000000     0          
O        O      0.795633333333     0.000000000000     0.888100000000     0          
O        O      0.833333333333     0.000000000000     0.929050000000     0          
O        O      0.833333333333     0.000000000000     0.847100000000     0          
O        O      0.762766666667     0.298266666667     0.844950000000     0          
O        O      0.757566666667     0.242466666667     0.820350000000     0          
O        O      0.725333333333     0.274666666667     0.800700000000     0          
O        O      0.727366666667     0.000000000000     0.784900000000     0          
O        O      0.848266666667     0.090800000000     0.957500000000     0          
O        O      0.798433333333     0.096433333333     0.931300000000     0          
O        O      0.848233333333     0.090766666667     0.905500000000     0          
O        O      0.795633333333     0.128966666667     0.888100000000     0          
O        O      0.833333333333     0.166666666667     0.929050000000     0          
O        O      0.833333333333     0.166666666667     0.847100000000     0          
O        O      0.797833333333     0.096100000000     0.844950000000     0          
O        O      0.848433333333     0.090900000000     0.820350000000     0          
O        O      0.784000000000     0.058666666667     0.800700000000     0          
O        O      0.727366666667     0.060700000000     0.784900000000     0          
O        O      0.757466666667     0.181600000000     0.957500000000     0          
O        O      0.702000000000     0.131766666667     0.931300000000     0          
O        O      0.757466666667     0.181566666667     0.905500000000     0          
O        O      0.666666666667     0.128966666667     0.888100000000     0          
O        O      0.701733333333     0.131166666667     0.844950000000     0          
O        O      0.757533333333     0.181766666667     0.820350000000     0          
O        O      0.725333333333     0.117333333333     0.800700000000     0          
O        O      0.666666666667     0.060700000000     0.784900000000     0          
O        O      0.909200000000     0.090800000000     0.957500000000     0          
O        O      0.903566666667     0.035333333333     0.931300000000     0          
O        O      0.909233333333     0.090800000000     0.905500000000     0          
O        O      0.871033333333     0.000000000000     0.888100000000     0          
O        O      0.903900000000     0.035066666667     0.844950000000     0          
O        O      0.909100000000     0.090866666667     0.820350000000     0          
O        O      0.941333333333     0.058666666667     0.800700000000     0          
O        O      0.939300000000     0.000000000000     0.784900000000     0          
O        O      0.818400000000     0.242533333333     0.957500000000     0          
O        O      0.868233333333     0.236900000000     0.931300000000     0          
O        O      0.818433333333     0.242566666667     0.905500000000     0          
O        O      0.871033333333     0.204366666667     0.888100000000     0          
O        O      0.868833333333     0.237233333333     0.844950000000     0          
O        O      0.818233333333     0.242433333333     0.820350000000     0          
O        O      0.882666666667     0.274666666667     0.800700000000     0          
O        O      0.939300000000     0.272633333333     0.784900000000     0          
O        O      0.868233333333     0.298000000000     0.931300000000     0          
O        O      0.868833333333     0.298266666667     0.844950000000     0          
O        O      0.903566666667     0.201566666667     0.931300000000     0          
O        O      0.903900000000     0.202166666667     0.844950000000     0          
O        O      0.702000000000     0.236900000000     0.931300000000     0          
O        O      0.701733333333     0.237233333333     0.844950000000     0          
O        O      0.798433333333     0.035333333333     0.931300000000     0          
O        O      0.797833333333     0.035066666667     0.844950000000     0          
O        O      0.763100000000     0.131766666667     0.931300000000     0          
O        O      0.762766666667     0.131166666667     0.844950000000     0          
O        O      0.964666666667     0.096433333333     0.931300000000     0          
O        O      0.964933333333     0.096100000000     0.844950000000     0          
O        O      0.702000000000     0.131766666667     0.568700000000     0          
O        O      0.701733333333     0.131166666667     0.655050000000     0          
O        O      0.903566666667     0.035333333333     0.568700000000     0          
O        O      0.903900000000     0.035066666667     0.655050000000     0          
O        O      0.868233333333     0.236900000000     0.568700000000     0          
O        O      0.868833333333     0.237233333333     0.655050000000     0          
O        O      0.964666666667     0.201566666667     0.568700000000     0          
O        O      0.964933333333     0.202166666667     0.655050000000     0          
O        O      0.763100000000     0.298000000000     0.568700000000     0          
O        O      0.762766666667     0.298266666667     0.655050000000     0          
O        O      0.798433333333     0.096433333333     0.568700000000     0          
O        O      0.797833333333     0.096100000000     0.655050000000     0          
O        O      0.888900000000     0.444433333333     0.000000000000     0          
O        O      0.848266666667     0.424133333333     0.042500000000     0          
O        O      0.798433333333     0.368666666667     0.068700000000     0          
O        O      0.848233333333     0.424133333333     0.094500000000     0          
O        O      0.888900000000     0.444433333333     0.136950000000     0          
O        O      0.795633333333     0.333333333333     0.111900000000     0          
O        O      0.833333333333     0.333333333333     0.070950000000     0          
O        O      0.833333333333     0.333333333333     0.152900000000     0          
O        O      0.797833333333     0.368400000000     0.155050000000     0          
O        O      0.848433333333     0.424200000000     0.179650000000     0          
O        O      0.784000000000     0.392000000000     0.199300000000     0          
O        O      0.727366666667     0.333333333333     0.215100000000     0          
O        O      0.766300000000     0.383166666667     0.250000000000     0          
O        O      0.777800000000     0.555566666667     0.000000000000     0          
O        O      0.757466666667     0.514933333333     0.042500000000     0          
O        O      0.763100000000     0.465100000000     0.068700000000     0          
O        O      0.757433333333     0.514900000000     0.094500000000     0          
O        O      0.777800000000     0.555566666667     0.136950000000     0          
O        O      0.795633333333     0.462300000000     0.111900000000     0          
O        O      0.833333333333     0.500000000000     0.070950000000     0          
O        O      0.833333333333     0.500000000000     0.152900000000     0          
O        O      0.762766666667     0.464500000000     0.155050000000     0          
O        O      0.757566666667     0.515100000000     0.179650000000     0          
O        O      0.725333333333     0.450666666667     0.199300000000     0          
O        O      0.727366666667     0.394033333333     0.215100000000     0          
O        O      0.716466666667     0.432966666667     0.250000000000     0          
O        O      0.909200000000     0.424133333333     0.042500000000     0          
O        O      0.964666666667     0.429766666667     0.068700000000     0          
O        O      0.909200000000     0.424100000000     0.094500000000     0          
O        O      0.666666666667     0.462300000000     0.111900000000     0          
O        O      0.666666666667     0.500000000000     0.070950000000     0          
O        O      0.666666666667     0.500000000000     0.152900000000     0          
O        O      0.964933333333     0.429433333333     0.155050000000     0          
O        O      0.909133333333     0.424233333333     0.179650000000     0          
O        O      0.941333333333     0.392000000000     0.199300000000     0          
O        O      0.666666666667     0.394033333333     0.215100000000     0          
O        O      0.950166666667     0.383133333333     0.250000000000     0          
O        O      0.818400000000     0.575866666667     0.042500000000     0          
O        O      0.868233333333     0.631333333333     0.068700000000     0          
O        O      0.818433333333     0.575866666667     0.094500000000     0          
O        O      0.871033333333     0.333333333333     0.111900000000     0          
O        O      0.868833333333     0.631600000000     0.155050000000     0          
O        O      0.818233333333     0.575800000000     0.179650000000     0          
O        O      0.882666666667     0.608000000000     0.199300000000     0          
O        O      0.939300000000     0.333333333333     0.215100000000     0          
O        O      0.900366666667     0.616833333333     0.250000000000     0          
O        O      0.909200000000     0.485066666667     0.042500000000     0          
O        O      0.903566666667     0.534900000000     0.068700000000     0          
O        O      0.909233333333     0.485100000000     0.094500000000     0          
O        O      0.871033333333     0.537700000000     0.111900000000     0          
O        O      0.903900000000     0.535500000000     0.155050000000     0          
O        O      0.909100000000     0.484900000000     0.179650000000     0          
O        O      0.941333333333     0.549333333333     0.199300000000     0          
O        O      0.939300000000     0.605966666667     0.215100000000     0          
O        O      0.950200000000     0.567033333333     0.250000000000     0          
O        O      0.757466666667     0.575866666667     0.042500000000     0          
O        O      0.702000000000     0.570233333333     0.068700000000     0          
O        O      0.757466666667     0.575900000000     0.094500000000     0          
O        O      0.666666666667     0.537700000000     0.111900000000     0          
O        O      0.701733333333     0.570566666667     0.155050000000     0          
O        O      0.757533333333     0.575766666667     0.179650000000     0          
O        O      0.725333333333     0.608000000000     0.199300000000     0          
O        O      0.666666666667     0.605966666667     0.215100000000     0          
O        O      0.716500000000     0.616866666667     0.250000000000     0          
O        O      0.909200000000     0.485066666667     0.457500000000     0          
O        O      0.964666666667     0.534900000000     0.431300000000     0          
O        O      0.909200000000     0.485100000000     0.405500000000     0          
O        O      0.888900000000     0.444433333333     0.363050000000     0          
O        O      0.666666666667     0.537700000000     0.388100000000     0          
O        O      0.666666666667     0.500000000000     0.429050000000     0          
O        O      0.666666666667     0.500000000000     0.347100000000     0          
O        O      0.964933333333     0.535500000000     0.344950000000     0          
O        O      0.909133333333     0.484900000000     0.320350000000     0          
O        O      0.941333333333     0.549333333333     0.300700000000     0          
O        O      0.666666666667     0.605966666667     0.284900000000     0          
O        O      0.757466666667     0.575866666667     0.457500000000     0          
O        O      0.763100000000     0.631333333333     0.431300000000     0          
O        O      0.757433333333     0.575866666667     0.405500000000     0          
O        O      0.777800000000     0.555566666667     0.363050000000     0          
O        O      0.795633333333     0.333333333333     0.388100000000     0          
O        O      0.833333333333     0.333333333333     0.429050000000     0          
O        O      0.833333333333     0.333333333333     0.347100000000     0          
O        O      0.762766666667     0.631600000000     0.344950000000     0          
O        O      0.757566666667     0.575800000000     0.320350000000     0          
O        O      0.725333333333     0.608000000000     0.300700000000     0          
O        O      0.727366666667     0.333333333333     0.284900000000     0          
O        O      0.848266666667     0.424133333333     0.457500000000     0          
O        O      0.798433333333     0.429766666667     0.431300000000     0          
O        O      0.848233333333     0.424100000000     0.405500000000     0          
O        O      0.795633333333     0.462300000000     0.388100000000     0          
O        O      0.833333333333     0.500000000000     0.429050000000     0          
O        O      0.833333333333     0.500000000000     0.347100000000     0          
O        O      0.797833333333     0.429433333333     0.344950000000     0          
O        O      0.848433333333     0.424233333333     0.320350000000     0          
O        O      0.784000000000     0.392000000000     0.300700000000     0          
O        O      0.727366666667     0.394033333333     0.284900000000     0          
O        O      0.757466666667     0.514933333333     0.457500000000     0          
O        O      0.702000000000     0.465100000000     0.431300000000     0          
O        O      0.757466666667     0.514900000000     0.405500000000     0          
O        O      0.666666666667     0.462300000000     0.388100000000     0          
O        O      0.701733333333     0.464500000000     0.344950000000     0          
O        O      0.757533333333     0.515100000000     0.320350000000     0          
O        O      0.725333333333     0.450666666667     0.300700000000     0          
O        O      0.666666666667     0.394033333333     0.284900000000     0          
O        O      0.909200000000     0.424133333333     0.457500000000     0          
O        O      0.903566666667     0.368666666667     0.431300000000     0          
O        O      0.909233333333     0.424133333333     0.405500000000     0          
O        O      0.871033333333     0.333333333333     0.388100000000     0          
O        O      0.903900000000     0.368400000000     0.344950000000     0          
O        O      0.909100000000     0.424200000000     0.320350000000     0          
O        O      0.941333333333     0.392000000000     0.300700000000     0          
O        O      0.939300000000     0.333333333333     0.284900000000     0          
O        O      0.818400000000     0.575866666667     0.457500000000     0          
O        O      0.868233333333     0.570233333333     0.431300000000     0          
O        O      0.818433333333     0.575900000000     0.405500000000     0          
O        O      0.871033333333     0.537700000000     0.388100000000     0          
O        O      0.868833333333     0.570566666667     0.344950000000     0          
O        O      0.818233333333     0.575766666667     0.320350000000     0          
O        O      0.882666666667     0.608000000000     0.300700000000     0          
O        O      0.939300000000     0.605966666667     0.284900000000     0          
O        O      0.868233333333     0.631333333333     0.431300000000     0          
O        O      0.868833333333     0.631600000000     0.344950000000     0          
O        O      0.903566666667     0.534900000000     0.431300000000     0          
O        O      0.903900000000     0.535500000000     0.344950000000     0          
O        O      0.702000000000     0.570233333333     0.431300000000     0          
O        O      0.701733333333     0.570566666667     0.344950000000     0          
O        O      0.798433333333     0.368666666667     0.431300000000     0          
O        O      0.797833333333     0.368400000000     0.344950000000     0          
O        O      0.763100000000     0.465100000000     0.431300000000     0          
O        O      0.762766666667     0.464500000000     0.344950000000     0          
O        O      0.964666666667     0.429766666667     0.431300000000     0          
O        O      0.964933333333     0.429433333333     0.344950000000     0          
O        O      0.702000000000     0.465100000000     0.068700000000     0          
O        O      0.701733333333     0.464500000000     0.155050000000     0          
O        O      0.903566666667     0.368666666667     0.068700000000     0          
O        O      0.903900000000     0.368400000000     0.155050000000     0          
O        O      0.868233333333     0.570233333333     0.068700000000     0          
O        O      0.868833333333     0.570566666667     0.155050000000     0          
O        O      0.964666666667     0.534900000000     0.068700000000     0          
O        O      0.964933333333     0.535500000000     0.155050000000     0          
O        O      0.763100000000     0.631333333333     0.068700000000     0          
O        O      0.762766666667     0.631600000000     0.155050000000     0          
O        O      0.798433333333     0.429766666667     0.068700000000     0          
O        O      0.797833333333     0.429433333333     0.155050000000     0          
O        O      0.888900000000     0.444433333333     0.500000000000     0          
O        O      0.848266666667     0.424133333333     0.542500000000     0          
O        O      0.798433333333     0.368666666667     0.568700000000     0          
O        O      0.848233333333     0.424133333333     0.594500000000     0          
O        O      0.888900000000     0.444433333333     0.636950000000     0          
O        O      0.795633333333     0.333333333333     0.611900000000     0          
O        O      0.833333333333     0.333333333333     0.570950000000     0          
O        O      0.833333333333     0.333333333333     0.652900000000     0          
O        O      0.797833333333     0.368400000000     0.655050000000     0          
O        O      0.848433333333     0.424200000000     0.679650000000     0          
O        O      0.784000000000     0.392000000000     0.699300000000     0          
O        O      0.727366666667     0.333333333333     0.715100000000     0          
O        O      0.766300000000     0.383166666667     0.750000000000     0          
O        O      0.777800000000     0.555566666667     0.500000000000     0          
O        O      0.757466666667     0.514933333333     0.542500000000     0          
O        O      0.763100000000     0.465100000000     0.568700000000     0          
O        O      0.757433333333     0.514900000000     0.594500000000     0          
O        O      0.777800000000     0.555566666667     0.636950000000     0          
O        O      0.795633333333     0.462300000000     0.611900000000     0          
O        O      0.833333333333     0.500000000000     0.570950000000     0          
O        O      0.833333333333     0.500000000000     0.652900000000     0          
O        O      0.762766666667     0.464500000000     0.655050000000     0          
O        O      0.757566666667     0.515100000000     0.679650000000     0          
O        O      0.725333333333     0.450666666667     0.699300000000     0          
O        O      0.727366666667     0.394033333333     0.715100000000     0          
O        O      0.716466666667     0.432966666667     0.750000000000     0          
O        O      0.909200000000     0.424133333333     0.542500000000     0          
O        O      0.964666666667     0.429766666667     0.568700000000     0          
O        O      0.909200000000     0.424100000000     0.594500000000     0          
O        O      0.666666666667     0.462300000000     0.611900000000     0          
O        O      0.666666666667     0.500000000000     0.570950000000     0          
O        O      0.666666666667     0.500000000000     0.652900000000     0          
O        O      0.964933333333     0.429433333333     0.655050000000     0          
O        O      0.909133333333     0.424233333333     0.679650000000     0          
O        O      0.941333333333     0.392000000000     0.699300000000     0          
O        O      0.666666666667     0.394033333333     0.715100000000     0          
O        O      0.950166666667     0.383133333333     0.750000000000     0          
O        O      0.818400000000     0.575866666667     0.542500000000     0          
O        O      0.868233333333     0.631333333333     0.568700000000     0          
O        O      0.818433333333     0.575866666667     0.594500000000     0          
O        O      0.871033333333     0.333333333333     0.611900000000     0          
O        O      0.868833333333     0.631600000000     0.655050000000     0          
O        O      0.818233333333     0.575800000000     0.679650000000     0          
O        O      0.882666666667     0.608000000000     0.699300000000     0          
O        O      0.939300000000     0.333333333333     0.715100000000     0          
O        O      0.900366666667     0.616833333333     0.750000000000     0          
O        O      0.909200000000     0.485066666667     0.542500000000     0          
O        O      0.903566666667     0.534900000000     0.568700000000     0          
O        O      0.909233333333     0.485100000000     0.594500000000     0          
O        O      0.871033333333     0.537700000000     0.611900000000     0          
O        O      0.903900000000     0.535500000000     0.655050000000     0          
O        O      0.909100000000     0.484900000000     0.679650000000     0          
O        O      0.941333333333     0.549333333333     0.699300000000     0          
O        O      0.939300000000     0.605966666667     0.715100000000     0          
O        O      0.950200000000     0.567033333333     0.750000000000     0          
O        O      0.757466666667     0.575866666667     0.542500000000     0          
O        O      0.702000000000     0.570233333333     0.568700000000     0          
O        O      0.757466666667     0.575900000000     0.594500000000     0          
O        O      0.666666666667     0.537700000000     0.611900000000     0          
O        O      0.701733333333     0.570566666667     0.655050000000     0          
O        O      0.757533333333     0.575766666667     0.679650000000     0          
O        O      0.725333333333     0.608000000000     0.699300000000     0          
O        O      0.666666666667     0.605966666667     0.715100000000     0          
O        O      0.716500000000     0.616866666667     0.750000000000     0          
O        O      0.909200000000     0.485066666667     0.957500000000     0          
O        O      0.964666666667     0.534900000000     0.931300000000     0          
O        O      0.909200000000     0.485100000000     0.905500000000     0          
O        O      0.888900000000     0.444433333333     0.863050000000     0          
O        O      0.666666666667     0.537700000000     0.888100000000     0          
O        O      0.666666666667     0.500000000000     0.929050000000     0          
O        O      0.666666666667     0.500000000000     0.847100000000     0          
O        O      0.964933333333     0.535500000000     0.844950000000     0          
O        O      0.909133333333     0.484900000000     0.820350000000     0          
O        O      0.941333333333     0.549333333333     0.800700000000     0          
O        O      0.666666666667     0.605966666667     0.784900000000     0          
O        O      0.757466666667     0.575866666667     0.957500000000     0          
O        O      0.763100000000     0.631333333333     0.931300000000     0          
O        O      0.757433333333     0.575866666667     0.905500000000     0          
O        O      0.777800000000     0.555566666667     0.863050000000     0          
O        O      0.795633333333     0.333333333333     0.888100000000     0          
O        O      0.833333333333     0.333333333333     0.929050000000     0          
O        O      0.833333333333     0.333333333333     0.847100000000     0          
O        O      0.762766666667     0.631600000000     0.844950000000     0          
O        O      0.757566666667     0.575800000000     0.820350000000     0          
O        O      0.725333333333     0.608000000000     0.800700000000     0          
O        O      0.727366666667     0.333333333333     0.784900000000     0          
O        O      0.848266666667     0.424133333333     0.957500000000     0          
O        O      0.798433333333     0.429766666667     0.931300000000     0          
O        O      0.848233333333     0.424100000000     0.905500000000     0          
O        O      0.795633333333     0.462300000000     0.888100000000     0          
O        O      0.833333333333     0.500000000000     0.929050000000     0          
O        O      0.833333333333     0.500000000000     0.847100000000     0          
O        O      0.797833333333     0.429433333333     0.844950000000     0          
O        O      0.848433333333     0.424233333333     0.820350000000     0          
O        O      0.784000000000     0.392000000000     0.800700000000     0          
O        O      0.727366666667     0.394033333333     0.784900000000     0          
O        O      0.757466666667     0.514933333333     0.957500000000     0          
O        O      0.702000000000     0.465100000000     0.931300000000     0          
O        O      0.757466666667     0.514900000000     0.905500000000     0          
O        O      0.666666666667     0.462300000000     0.888100000000     0          
O        O      0.701733333333     0.464500000000     0.844950000000     0          
O        O      0.757533333333     0.515100000000     0.820350000000     0          
O        O      0.725333333333     0.450666666667     0.800700000000     0          
O        O      0.666666666667     0.394033333333     0.784900000000     0          
O        O      0.909200000000     0.424133333333     0.957500000000     0          
O        O      0.903566666667     0.368666666667     0.931300000000     0          
O        O      0.909233333333     0.424133333333     0.905500000000     0          
O        O      0.871033333333     0.333333333333     0.888100000000     0          
O        O      0.903900000000     0.368400000000     0.844950000000     0          
O        O      0.909100000000     0.424200000000     0.820350000000     0          
O        O      0.941333333333     0.392000000000     0.800700000000     0          
O        O      0.939300000000     0.333333333333     0.784900000000     0          
O        O      0.818400000000     0.575866666667     0.957500000000     0          
O        O      0.868233333333     0.570233333333     0.931300000000     0          
O        O      0.818433333333     0.575900000000     0.905500000000     0          
O        O      0.871033333333     0.537700000000     0.888100000000     0          
O        O      0.868833333333     0.570566666667     0.844950000000     0          
O        O      0.818233333333     0.575766666667     0.820350000000     0          
O        O      0.882666666667     0.608000000000     0.800700000000     0          
O        O      0.939300000000     0.605966666667     0.784900000000     0          
O        O      0.868233333333     0.631333333333     0.931300000000     0          
O        O      0.868833333333     0.631600000000     0.844950000000     0          
O        O      0.903566666667     0.534900000000     0.931300000000     0          
O        O      0.903900000000     0.535500000000     0.844950000000     0          
O        O      0.702000000000     0.570233333333     0.931300000000     0          
O        O      0.701733333333     0.570566666667     0.844950000000     0          
O        O      0.798433333333     0.368666666667     0.931300000000     0          
O        O      0.797833333333     0.368400000000     0.844950000000     0          
O        O      0.763100000000     0.465100000000     0.931300000000     0          
O        O      0.762766666667     0.464500000000     0.844950000000     0          
O        O      0.964666666667     0.429766666667     0.931300000000     0          
O        O      0.964933333333     0.429433333333     0.844950000000     0          
O        O      0.702000000000     0.465100000000     0.568700000000     0          
O        O      0.701733333333     0.464500000000     0.655050000000     0          
O        O      0.903566666667     0.368666666667     0.568700000000     0          
O        O      0.903900000000     0.368400000000     0.655050000000     0          
O        O      0.868233333333     0.570233333333     0.568700000000     0          
O        O      0.868833333333     0.570566666667     0.655050000000     0          
O        O      0.964666666667     0.534900000000     0.568700000000     0          
O        O      0.964933333333     0.535500000000     0.655050000000     0          
O        O      0.763100000000     0.631333333333     0.568700000000     0          
O        O      0.762766666667     0.631600000000     0.655050000000     0          
O        O      0.798433333333     0.429766666667     0.568700000000     0          
O        O      0.797833333333     0.429433333333     0.655050000000     0          
O        O      0.888900000000     0.777766666667     0.000000000000     0          
O        O      0.848266666667     0.757466666667     0.042500000000     0          
O        O      0.798433333333     0.702000000000     0.068700000000     0          
O        O      0.848233333333     0.757466666667     0.094500000000     0          
O        O      0.888900000000     0.777766666667     0.136950000000     0          
O        O      0.795633333333     0.666666666667     0.111900000000     0          
O        O      0.833333333333     0.666666666667     0.070950000000     0          
O        O      0.833333333333     0.666666666667     0.152900000000     0          
O        O      0.797833333333     0.701733333333     0.155050000000     0          
O        O      0.848433333333     0.757533333333     0.179650000000     0          
O        O      0.784000000000     0.725333333333     0.199300000000     0          
O        O      0.727366666667     0.666666666667     0.215100000000     0          
O        O      0.766300000000     0.716500000000     0.250000000000     0          
O        O      0.777800000000     0.888900000000     0.000000000000     0          
O        O      0.757466666667     0.848266666667     0.042500000000     0          
O        O      0.763100000000     0.798433333333     0.068700000000     0          
O        O      0.757433333333     0.848233333333     0.094500000000     0          
O        O      0.777800000000     0.888900000000     0.136950000000     0          
O        O      0.795633333333     0.795633333333     0.111900000000     0          
O        O      0.833333333333     0.833333333333     0.070950000000     0          
O        O      0.833333333333     0.833333333333     0.152900000000     0          
O        O      0.762766666667     0.797833333333     0.155050000000     0          
O        O      0.757566666667     0.848433333333     0.179650000000     0          
O        O      0.725333333333     0.784000000000     0.199300000000     0          
O        O      0.727366666667     0.727366666667     0.215100000000     0          
O        O      0.716466666667     0.766300000000     0.250000000000     0          
O        O      0.909200000000     0.757466666667     0.042500000000     0          
O        O      0.964666666667     0.763100000000     0.068700000000     0          
O        O      0.909200000000     0.757433333333     0.094500000000     0          
O        O      0.666666666667     0.795633333333     0.111900000000     0          
O        O      0.666666666667     0.833333333333     0.070950000000     0          
O        O      0.666666666667     0.833333333333     0.152900000000     0          
O        O      0.964933333333     0.762766666667     0.155050000000     0          
O        O      0.909133333333     0.757566666667     0.179650000000     0          
O        O      0.941333333333     0.725333333333     0.199300000000     0          
O        O      0.666666666667     0.727366666667     0.215100000000     0          
O        O      0.950166666667     0.716466666667     0.250000000000     0          
O        O      0.818400000000     0.909200000000     0.042500000000     0          
O        O      0.868233333333     0.964666666667     0.068700000000     0          
O        O      0.818433333333     0.909200000000     0.094500000000     0          
O        O      0.871033333333     0.666666666667     0.111900000000     0          
O        O      0.868833333333     0.964933333333     0.155050000000     0          
O        O      0.818233333333     0.909133333333     0.179650000000     0          
O        O      0.882666666667     0.941333333333     0.199300000000     0          
O        O      0.939300000000     0.666666666667     0.215100000000     0          
O        O      0.900366666667     0.950166666667     0.250000000000     0          
O        O      0.909200000000     0.818400000000     0.042500000000     0          
O        O      0.903566666667     0.868233333333     0.068700000000     0          
O        O      0.909233333333     0.818433333333     0.094500000000     0          
O        O      0.871033333333     0.871033333333     0.111900000000     0          
O        O      0.903900000000     0.868833333333     0.155050000000     0          
O        O      0.909100000000     0.818233333333     0.179650000000     0          
O        O      0.941333333333     0.882666666667     0.199300000000     0          
O        O      0.939300000000     0.939300000000     0.215100000000     0          
O        O      0.950200000000     0.900366666667     0.250000000000     0          
O        O      0.757466666667     0.909200000000     0.042500000000     0          
O        O      0.702000000000     0.903566666667     0.068700000000     0          
O        O      0.757466666667     0.909233333333     0.094500000000     0          
O        O      0.666666666667     0.871033333333     0.111900000000     0          
O        O      0.701733333333     0.903900000000     0.155050000000     0          
O        O      0.757533333333     0.909100000000     0.179650000000     0          
O        O      0.725333333333     0.941333333333     0.199300000000     0          
O        O      0.666666666667     0.939300000000     0.215100000000     0          
O        O      0.716500000000     0.950200000000     0.250000000000     0          
O        O      0.909200000000     0.818400000000     0.457500000000     0          
O        O      0.964666666667     0.868233333333     0.431300000000     0          
O        O      0.909200000000     0.818433333333     0.405500000000     0          
O        O      0.888900000000     0.777766666667     0.363050000000     0          
O        O      0.666666666667     0.871033333333     0.388100000000     0          
O        O      0.666666666667     0.833333333333     0.429050000000     0          
O        O      0.666666666667     0.833333333333     0.347100000000     0          
O        O      0.964933333333     0.868833333333     0.344950000000     0          
O        O      0.909133333333     0.818233333333     0.320350000000     0          
O        O      0.941333333333     0.882666666667     0.300700000000     0          
O        O      0.666666666667     0.939300000000     0.284900000000     0          
O        O      0.757466666667     0.909200000000     0.457500000000     0          
O        O      0.763100000000     0.964666666667     0.431300000000     0          
O        O      0.757433333333     0.909200000000     0.405500000000     0          
O        O      0.777800000000     0.888900000000     0.363050000000     0          
O        O      0.795633333333     0.666666666667     0.388100000000     0          
O        O      0.833333333333     0.666666666667     0.429050000000     0          
O        O      0.833333333333     0.666666666667     0.347100000000     0          
O        O      0.762766666667     0.964933333333     0.344950000000     0          
O        O      0.757566666667     0.909133333333     0.320350000000     0          
O        O      0.725333333333     0.941333333333     0.300700000000     0          
O        O      0.727366666667     0.666666666667     0.284900000000     0          
O        O      0.848266666667     0.757466666667     0.457500000000     0          
O        O      0.798433333333     0.763100000000     0.431300000000     0          
O        O      0.848233333333     0.757433333333     0.405500000000     0          
O        O      0.795633333333     0.795633333333     0.388100000000     0          
O        O      0.833333333333     0.833333333333     0.429050000000     0          
O        O      0.833333333333     0.833333333333     0.347100000000     0          
O        O      0.797833333333     0.762766666667     0.344950000000     0          
O        O      0.848433333333     0.757566666667     0.320350000000     0          
O        O      0.784000000000     0.725333333333     0.300700000000     0          
O        O      0.727366666667     0.727366666667     0.284900000000     0          
O        O      0.757466666667     0.848266666667     0.457500000000     0          
O        O      0.702000000000     0.798433333333     0.431300000000     0          
O        O      0.757466666667     0.848233333333     0.405500000000     0          
O        O      0.666666666667     0.795633333333     0.388100000000     0          
O        O      0.701733333333     0.797833333333     0.344950000000     0          
O        O      0.757533333333     0.848433333333     0.320350000000     0          
O        O      0.725333333333     0.784000000000     0.300700000000     0          
O        O      0.666666666667     0.727366666667     0.284900000000     0          
O        O      0.909200000000     0.757466666667     0.457500000000     0          
O        O      0.903566666667     0.702000000000     0.431300000000     0          
O        O      0.909233333333     0.757466666667     0.405500000000     0          
O        O      0.871033333333     0.666666666667     0.388100000000     0          
O        O      0.903900000000     0.701733333333     0.344950000000     0          
O        O      0.909100000000     0.757533333333     0.320350000000     0          
O        O      0.941333333333     0.725333333333     0.300700000000     0          
O        O      0.939300000000     0.666666666667     0.284900000000     0          
O        O      0.818400000000     0.909200000000     0.457500000000     0          
O        O      0.868233333333     0.903566666667     0.431300000000     0          
O        O      0.818433333333     0.909233333333     0.405500000000     0          
O        O      0.871033333333     0.871033333333     0.388100000000     0          
O        O      0.868833333333     0.903900000000     0.344950000000     0          
O        O      0.818233333333     0.909100000000     0.320350000000     0          
O        O      0.882666666667     0.941333333333     0.300700000000     0          
O        O      0.939300000000     0.939300000000     0.284900000000     0          
O        O      0.868233333333     0.964666666667     0.431300000000     0          
O        O      0.868833333333     0.964933333333     0.344950000000     0          
O        O      0.903566666667     0.868233333333     0.431300000000     0          
O        O      0.903900000000     0.868833333333     0.344950000000     0          
O        O      0.702000000000     0.903566666667     0.431300000000     0          
O        O      0.701733333333     0.903900000000     0.344950000000     0          
O        O      0.798433333333     0.702000000000     0.431300000000     0          
O        O      0.797833333333     0.701733333333     0.344950000000     0          
O        O      0.763100000000     0.798433333333     0.431300000000     0          
O        O      0.762766666667     0.797833333333     0.344950000000     0          
O        O      0.964666666667     0.763100000000     0.431300000000     0          
O        O      0.964933333333     0.762766666667     0.344950000000     0          
O        O      0.702000000000     0.798433333333     0.068700000000     0          
O        O      0.701733333333     0.797833333333     0.155050000000     0          
O        O      0.903566666667     0.702000000000     0.068700000000     0          
O        O      0.903900000000     0.701733333333     0.155050000000     0          
O        O      0.868233333333     0.903566666667     0.068700000000     0          
O        O      0.868833333333     0.903900000000     0.155050000000     0          
O        O      0.964666666667     0.868233333333     0.068700000000     0          
O        O      0.964933333333     0.868833333333     0.155050000000     0          
O        O      0.763100000000     0.964666666667     0.068700000000     0          
O        O      0.762766666667     0.964933333333     0.155050000000     0          
O        O      0.798433333333     0.763100000000     0.068700000000     0          
O        O      0.797833333333     0.762766666667     0.155050000000     0          
O        O      0.888900000000     0.777766666667     0.500000000000     0          
O        O      0.848266666667     0.757466666667     0.542500000000     0          
O        O      0.798433333333     0.702000000000     0.568700000000     0          
O        O      0.848233333333     0.757466666667     0.594500000000     0          
O        O      0.888900000000     0.777766666667     0.636950000000     0          
O        O      0.795633333333     0.666666666667     0.611900000000     0          
O        O      0.833333333333     0.666666666667     0.570950000000     0          
O        O      0.833333333333     0.666666666667     0.652900000000     0          
O        O      0.797833333333     0.701733333333     0.655050000000     0          
O        O      0.848433333333     0.757533333333     0.679650000000     0          
O        O      0.784000000000     0.725333333333     0.699300000000     0          
O        O      0.727366666667     0.666666666667     0.715100000000     0          
O        O      0.766300000000     0.716500000000     0.750000000000     0          
O        O      0.777800000000     0.888900000000     0.500000000000     0          
O        O      0.757466666667     0.848266666667     0.542500000000     0          
O        O      0.763100000000     0.798433333333     0.568700000000     0          
O        O      0.757433333333     0.848233333333     0.594500000000     0          
O        O      0.777800000000     0.888900000000     0.636950000000     0          
O        O      0.795633333333     0.795633333333     0.611900000000     0          
O        O      0.833333333333     0.833333333333     0.570950000000     0          
O        O      0.833333333333     0.833333333333     0.652900000000     0          
O        O      0.762766666667     0.797833333333     0.655050000000     0          
O        O      0.757566666667     0.848433333333     0.679650000000     0          
O        O      0.725333333333     0.784000000000     0.699300000000     0          
O        O      0.727366666667     0.727366666667     0.715100000000     0          
O        O      0.716466666667     0.766300000000     0.750000000000     0          
O        O      0.909200000000     0.757466666667     0.542500000000     0          
O        O      0.964666666667     0.763100000000     0.568700000000     0          
O        O      0.909200000000     0.757433333333     0.594500000000     0          
O        O      0.666666666667     0.795633333333     0.611900000000     0          
O        O      0.666666666667     0.833333333333     0.570950000000     0          
O        O      0.666666666667     0.833333333333     0.652900000000     0          
O        O      0.964933333333     0.762766666667     0.655050000000     0          
O        O      0.909133333333     0.757566666667     0.679650000000     0          
O        O      0.941333333333     0.725333333333     0.699300000000     0          
O        O      0.666666666667     0.727366666667     0.715100000000     0          
O        O      0.950166666667     0.716466666667     0.750000000000     0          
O        O      0.818400000000     0.909200000000     0.542500000000     0          
O        O      0.868233333333     0.964666666667     0.568700000000     0          
O        O      0.818433333333     0.909200000000     0.594500000000     0          
O        O      0.871033333333     0.666666666667     0.611900000000     0          
O        O      0.868833333333     0.964933333333     0.655050000000     0          
O        O      0.818233333333     0.909133333333     0.679650000000     0          
O        O      0.882666666667     0.941333333333     0.699300000000     0          
O        O      0.939300000000     0.666666666667     0.715100000000     0          
O        O      0.900366666667     0.950166666667     0.750000000000     0          
O        O      0.909200000000     0.818400000000     0.542500000000     0          
O        O      0.903566666667     0.868233333333     0.568700000000     0          
O        O      0.909233333333     0.818433333333     0.594500000000     0          
O        O      0.871033333333     0.871033333333     0.611900000000     0          
O        O      0.903900000000     0.868833333333     0.655050000000     0          
O        O      0.909100000000     0.818233333333     0.679650000000     0          
O        O      0.941333333333     0.882666666667     0.699300000000     0          
O        O      0.939300000000     0.939300000000     0.715100000000     0          
O        O      0.950200000000     0.900366666667     0.750000000000     0          
O        O      0.757466666667     0.909200000000     0.542500000000     0          
O        O      0.702000000000     0.903566666667     0.568700000000     0          
O        O      0.757466666667     0.909233333333     0.594500000000     0          
O        O      0.666666666667     0.871033333333     0.611900000000     0          
O        O      0.701733333333     0.903900000000     0.655050000000     0          
O        O      0.757533333333     0.909100000000     0.679650000000     0          
O        O      0.725333333333     0.941333333333     0.699300000000     0          
O        O      0.666666666667     0.939300000000     0.715100000000     0          
O        O      0.716500000000     0.950200000000     0.750000000000     0          
O        O      0.909200000000     0.818400000000     0.957500000000     0          
O        O      0.964666666667     0.868233333333     0.931300000000     0          
O        O      0.909200000000     0.818433333333     0.905500000000     0          
O        O      0.888900000000     0.777766666667     0.863050000000     0          
O        O      0.666666666667     0.871033333333     0.888100000000     0          
O        O      0.666666666667     0.833333333333     0.929050000000     0          
O        O      0.666666666667     0.833333333333     0.847100000000     0          
O        O      0.964933333333     0.868833333333     0.844950000000     0          
O        O      0.909133333333     0.818233333333     0.820350000000     0          
O        O      0.941333333333     0.882666666667     0.800700000000     0          
O        O      0.666666666667     0.939300000000     0.784900000000     0          
O        O      0.757466666667     0.909200000000     0.957500000000     0          
O        O      0.763100000000     0.964666666667     0.931300000000     0          
O        O      0.757433333333     0.909200000000     0.905500000000     0          
O        O      0.777800000000     0.888900000000     0.863050000000     0          
O        O      0.795633333333     0.666666666667     0.888100000000     0          
O        O      0.833333333333     0.666666666667     0.929050000000     0          
O        O      0.833333333333     0.666666666667     0.847100000000     0          
O        O      0.762766666667     0.964933333333     0.844950000000     0          
O        O      0.757566666667     0.909133333333     0.820350000000     0          
O        O      0.725333333333     0.941333333333     0.800700000000     0          
O        O      0.727366666667     0.666666666667     0.784900000000     0          
O        O      0.848266666667     0.757466666667     0.957500000000     0          
O        O      0.798433333333     0.763100000000     0.931300000000     0          
O        O      0.848233333333     0.757433333333     0.905500000000     0          
O        O      0.795633333333     0.795633333333     0.888100000000     0          
O        O      0.833333333333     0.833333333333     0.929050000000     0          
O        O      0.833333333333     0.833333333333     0.847100000000     0          
O        O      0.797833333333     0.762766666667     0.844950000000     0          
O        O      0.848433333333     0.757566666667     0.820350000000     0          
O        O      0.784000000000     0.725333333333     0.800700000000     0          
O        O      0.727366666667     0.727366666667     0.784900000000     0          
O        O      0.757466666667     0.848266666667     0.957500000000     0          
O        O      0.702000000000     0.798433333333     0.931300000000     0          
O        O      0.757466666667     0.848233333333     0.905500000000     0          
O        O      0.666666666667     0.795633333333     0.888100000000     0          
O        O      0.701733333333     0.797833333333     0.844950000000     0          
O        O      0.757533333333     0.848433333333     0.820350000000     0          
O        O      0.725333333333     0.784000000000     0.800700000000     0          
O        O      0.666666666667     0.727366666667     0.784900000000     0          
O        O      0.909200000000     0.757466666667     0.957500000000     0          
O        O      0.903566666667     0.702000000000     0.931300000000     0          
O        O      0.909233333333     0.757466666667     0.905500000000     0          
O        O      0.871033333333     0.666666666667     0.888100000000     0          
O        O      0.903900000000     0.701733333333     0.844950000000     0          
O        O      0.909100000000     0.757533333333     0.820350000000     0          
O        O      0.941333333333     0.725333333333     0.800700000000     0          
O        O      0.939300000000     0.666666666667     0.784900000000     0          
O        O      0.818400000000     0.909200000000     0.957500000000     0          
O        O      0.868233333333     0.903566666667     0.931300000000     0          
O        O      0.818433333333     0.909233333333     0.905500000000     0          
O        O      0.871033333333     0.871033333333     0.888100000000     0          
O        O      0.868833333333     0.903900000000     0.844950000000     0          
O        O      0.818233333333     0.909100000000     0.820350000000     0          
O        O      0.882666666667     0.941333333333     0.800700000000     0          
O        O      0.939300000000     0.939300000000     0.784900000000     0          
O        O      0.868233333333     0.964666666667     0.931300000000     0          
O        O      0.868833333333     0.964933333333     0.844950000000     0          
O        O      0.903566666667     0.868233333333     0.931300000000     0          
O        O      0.903900000000     0.868833333333     0.844950000000     0          
O        O      0.702000000000     0.903566666667     0.931300000000     0          
O        O      0.701733333333     0.903900000000     0.844950000000     0          
O        O      0.798433333333     0.702000000000     0.931300000000     0          
O        O      0.797833333333     0.701733333333     0.844950000000     0          
O        O      0.763100000000     0.798433333333     0.931300000000     0          
O        O      0.762766666667     0.797833333333     0.844950000000     0          
O        O      0.964666666667     0.763100000000     0.931300000000     0          
O        O      0.964933333333     0.762766666667     0.844950000000     0          
O        O      0.702000000000     0.798433333333     0.568700000000     0          
O        O      0.701733333333     0.797833333333     0.655050000000     0          
O        O      0.903566666667     0.702000000000     0.568700000000     0          
O        O      0.903900000000     0.701733333333     0.655050000000     0          
O        O      0.868233333333     0.903566666667     0.568700000000     0          
O        O      0.868833333333     0.903900000000     0.655050000000     0          
O        O      0.964666666667     0.868233333333     0.568700000000     0          
O        O      0.964933333333     0.868833333333     0.655050000000     0          
O        O      0.763100000000     0.964666666667     0.568700000000     0          
O        O      0.762766666667     0.964933333333     0.655050000000     0          
O        O      0.798433333333     0.763100000000     0.568700000000     0          
O        O      0.797833333333     0.762766666667     0.655050000000     0          


