data_zeolite

_audit_creation_method RASPA-1.0
_audit_creation_date 2021-1-30
_audit_author_name ''

_cell_length_a    36.837
_cell_length_b    36.837
_cell_length_c    30.869
_cell_angle_alpha 90
_cell_angle_beta  90
_cell_angle_gamma 120
_cell_volume      36276.2

_symmetry_cell_setting          trigonal
_symmetry_space_group_name_Hall 'P 1'
_symmetry_space_group_name_H-M  'P 1'
_symmetry_Int_Tables_number     1

_symmetry_equiv_pos_as_xyz 'x,y,z'

loop_
_atom_site_label
_atom_site_type_symbol
_atom_site_fract_x
_atom_site_fract_y
_atom_site_fract_z
_atom_site_charge
O        O      0.230066666667     0.331866666667     0.624200000000     0          
O        O      0.295833333333     0.037500000000     0.675300000000     0          
O        O      0.219666666667     0.007133333333     0.707000000000     0          
O        O      0.245900000000     0.289633333333     0.682700000000     0          
O        O      0.133733333333     0.066866666667     0.761800000000     0          
O        O      0.185400000000     0.037466666667     0.760400000000     0          
O        O      0.108900000000     0.325266666667     0.791300000000     0          
O        O      0.090266666667     0.045133333333     0.825600000000     0          
O        O      0.035400000000     0.070833333333     0.828800000000     0          
O        O      0.103900000000     0.107633333333     0.876500000000     0          
O        O      0.148833333333     0.074433333333     0.902800000000     0          
O        O      0.177833333333     0.022366666667     0.910800000000     0          
O        O      0.115633333333     0.013400000000     0.959800000000     0          
O        O      0.077900000000     0.038933333333     0.013900000000     0          
O        O      0.153266666667     0.076633333333     0.407300000000     0          
O        O      0.176333333333     0.019366666667     0.408100000000     0          
O        O      0.115833333333     0.011900000000     0.459500000000     0          
O        O      0.293866666667     0.039466666667     0.512300000000     0          
T        Si     0.248000000000     0.000033333333     0.672100000000     0          
T        Si     0.137266666667     0.025500000000     0.754800000000     0          
T        Si     0.084466666667     0.085366666667     0.830700000000     0          
T        Si     0.136600000000     0.026700000000     0.912500000000     0          
T        Si     0.137466666667     0.027433333333     0.412700000000     0          
T        Si     0.248900000000     0.000000000000     0.500000000000     0          
T        Si     0.083633333333     0.083633333333     0.000000000000     0          
O        O      0.001466666667     0.231533333333     0.624200000000     0          
O        O      0.295833333333     0.258333333333     0.675300000000     0          
O        O      0.326200000000     0.212533333333     0.707000000000     0          
O        O      0.043700000000     0.289600000000     0.682700000000     0          
O        O      0.266466666667     0.066866666667     0.761800000000     0          
O        O      0.295866666667     0.147933333333     0.760400000000     0          
O        O      0.008066666667     0.116966666667     0.791300000000     0          
O        O      0.288200000000     0.045133333333     0.825600000000     0          
O        O      0.262500000000     0.297900000000     0.828800000000     0          
O        O      0.225700000000     0.329600000000     0.876500000000     0          
O        O      0.258900000000     0.074400000000     0.902800000000     0          
O        O      0.310966666667     0.155466666667     0.910800000000     0          
O        O      0.319933333333     0.102233333333     0.959800000000     0          
O        O      0.294400000000     0.038966666667     0.013900000000     0          
O        O      0.256700000000     0.076633333333     0.407300000000     0          
O        O      0.313966666667     0.156966666667     0.408100000000     0          
O        O      0.321433333333     0.103933333333     0.459500000000     0          
O        O      0.293866666667     0.254400000000     0.512300000000     0          
T        Si     0.333300000000     0.247966666667     0.672100000000     0          
T        Si     0.307833333333     0.111766666667     0.754800000000     0          
T        Si     0.247966666667     0.332433333333     0.830700000000     0          
T        Si     0.306633333333     0.109900000000     0.912500000000     0          
T        Si     0.305900000000     0.110033333333     0.412700000000     0          
T        Si     0.000000000000     0.248900000000     0.500000000000     0          
T        Si     0.249700000000     0.000000000000     0.000000000000     0          
O        O      0.101800000000     0.103266666667     0.624200000000     0          
O        O      0.075000000000     0.037500000000     0.675300000000     0          
O        O      0.120800000000     0.113666666667     0.707000000000     0          
O        O      0.043733333333     0.087433333333     0.682700000000     0          
O        O      0.266466666667     0.199600000000     0.761800000000     0          
O        O      0.185400000000     0.147933333333     0.760400000000     0          
O        O      0.216366666667     0.224433333333     0.791300000000     0          
O        O      0.288200000000     0.243066666667     0.825600000000     0          
O        O      0.035433333333     0.297933333333     0.828800000000     0          
O        O      0.003733333333     0.229433333333     0.876500000000     0          
O        O      0.258933333333     0.184500000000     0.902800000000     0          
O        O      0.177866666667     0.155500000000     0.910800000000     0          
O        O      0.231100000000     0.217700000000     0.959800000000     0          
O        O      0.294366666667     0.255433333333     0.013900000000     0          
O        O      0.256700000000     0.180066666667     0.407300000000     0          
O        O      0.176366666667     0.157000000000     0.408100000000     0          
O        O      0.229400000000     0.217500000000     0.459500000000     0          
O        O      0.078933333333     0.039466666667     0.512300000000     0          
T        Si     0.085366666667     0.085333333333     0.672100000000     0          
T        Si     0.221566666667     0.196066666667     0.754800000000     0          
T        Si     0.000900000000     0.248866666667     0.830700000000     0          
T        Si     0.223433333333     0.196733333333     0.912500000000     0          
T        Si     0.223300000000     0.195866666667     0.412700000000     0          
T        Si     0.084433333333     0.084433333333     0.500000000000     0          
T        Si     0.000000000000     0.249700000000     0.000000000000     0          
O        O      0.331866666667     0.230066666667     0.375800000000     0          
O        O      0.037500000000     0.295833333333     0.324700000000     0          
O        O      0.007133333333     0.219666666667     0.293000000000     0          
O        O      0.289633333333     0.245900000000     0.317300000000     0          
O        O      0.066866666667     0.133733333333     0.238200000000     0          
O        O      0.037466666667     0.185400000000     0.239600000000     0          
O        O      0.325266666667     0.108900000000     0.208700000000     0          
O        O      0.045133333333     0.090266666667     0.174400000000     0          
O        O      0.070833333333     0.035400000000     0.171200000000     0          
O        O      0.107633333333     0.103900000000     0.123500000000     0          
O        O      0.074433333333     0.148833333333     0.097200000000     0          
O        O      0.022366666667     0.177833333333     0.089200000000     0          
O        O      0.013400000000     0.115633333333     0.040200000000     0          
O        O      0.038933333333     0.077900000000     0.986100000000     0          
O        O      0.076633333333     0.153266666667     0.592700000000     0          
O        O      0.019366666667     0.176333333333     0.591900000000     0          
O        O      0.011900000000     0.115833333333     0.540500000000     0          
O        O      0.039466666667     0.293866666667     0.487700000000     0          
T        Si     0.000033333333     0.248000000000     0.327900000000     0          
T        Si     0.025500000000     0.137266666667     0.245200000000     0          
T        Si     0.085366666667     0.084466666667     0.169300000000     0          
T        Si     0.026700000000     0.136600000000     0.087500000000     0          
T        Si     0.027433333333     0.137466666667     0.587300000000     0          
O        O      0.103266666667     0.101800000000     0.375800000000     0          
O        O      0.037500000000     0.075000000000     0.324700000000     0          
O        O      0.113666666667     0.120800000000     0.293000000000     0          
O        O      0.087433333333     0.043733333333     0.317300000000     0          
O        O      0.199600000000     0.266466666667     0.238200000000     0          
O        O      0.147933333333     0.185400000000     0.239600000000     0          
O        O      0.224433333333     0.216366666667     0.208700000000     0          
O        O      0.243066666667     0.288200000000     0.174400000000     0          
O        O      0.297933333333     0.035433333333     0.171200000000     0          
O        O      0.229433333333     0.003733333333     0.123500000000     0          
O        O      0.184500000000     0.258933333333     0.097200000000     0          
O        O      0.155500000000     0.177866666667     0.089200000000     0          
O        O      0.217700000000     0.231100000000     0.040200000000     0          
O        O      0.255433333333     0.294366666667     0.986100000000     0          
O        O      0.180066666667     0.256700000000     0.592700000000     0          
O        O      0.157000000000     0.176366666667     0.591900000000     0          
O        O      0.217500000000     0.229400000000     0.540500000000     0          
O        O      0.039466666667     0.078933333333     0.487700000000     0          
T        Si     0.085333333333     0.085366666667     0.327900000000     0          
T        Si     0.196066666667     0.221566666667     0.245200000000     0          
T        Si     0.248866666667     0.000900000000     0.169300000000     0          
T        Si     0.196733333333     0.223433333333     0.087500000000     0          
T        Si     0.195866666667     0.223300000000     0.587300000000     0          
O        O      0.231533333333     0.001466666667     0.375800000000     0          
O        O      0.258333333333     0.295833333333     0.324700000000     0          
O        O      0.212533333333     0.326200000000     0.293000000000     0          
O        O      0.289600000000     0.043700000000     0.317300000000     0          
O        O      0.066866666667     0.266466666667     0.238200000000     0          
O        O      0.147933333333     0.295866666667     0.239600000000     0          
O        O      0.116966666667     0.008066666667     0.208700000000     0          
O        O      0.045133333333     0.288200000000     0.174400000000     0          
O        O      0.297900000000     0.262500000000     0.171200000000     0          
O        O      0.329600000000     0.225700000000     0.123500000000     0          
O        O      0.074400000000     0.258900000000     0.097200000000     0          
O        O      0.155466666667     0.310966666667     0.089200000000     0          
O        O      0.102233333333     0.319933333333     0.040200000000     0          
O        O      0.038966666667     0.294400000000     0.986100000000     0          
O        O      0.076633333333     0.256700000000     0.592700000000     0          
O        O      0.156966666667     0.313966666667     0.591900000000     0          
O        O      0.103933333333     0.321433333333     0.540500000000     0          
O        O      0.254400000000     0.293866666667     0.487700000000     0          
T        Si     0.247966666667     0.333300000000     0.327900000000     0          
T        Si     0.111766666667     0.307833333333     0.245200000000     0          
T        Si     0.332433333333     0.247966666667     0.169300000000     0          
T        Si     0.109900000000     0.306633333333     0.087500000000     0          
T        Si     0.110033333333     0.305900000000     0.587300000000     0          
O        O      0.103266666667     0.001466666667     0.375800000000     0          
O        O      0.113666666667     0.326200000000     0.293000000000     0          
O        O      0.224433333333     0.008066666667     0.208700000000     0          
O        O      0.229433333333     0.225700000000     0.123500000000     0          
O        O      0.217700000000     0.319933333333     0.040200000000     0          
O        O      0.217500000000     0.321433333333     0.540500000000     0          
T        Si     0.085333333333     0.333300000000     0.327900000000     0          
T        Si     0.196066666667     0.307833333333     0.245200000000     0          
T        Si     0.248866666667     0.247966666667     0.169300000000     0          
T        Si     0.196733333333     0.306633333333     0.087500000000     0          
T        Si     0.195866666667     0.305900000000     0.587300000000     0          
T        Si     0.084433333333     0.000000000000     0.500000000000     0          
T        Si     0.249700000000     0.249700000000     0.000000000000     0          
O        O      0.331866666667     0.101800000000     0.375800000000     0          
O        O      0.007133333333     0.120800000000     0.293000000000     0          
O        O      0.325266666667     0.216366666667     0.208700000000     0          
O        O      0.107633333333     0.003733333333     0.123500000000     0          
O        O      0.013400000000     0.231100000000     0.040200000000     0          
O        O      0.011900000000     0.229400000000     0.540500000000     0          
T        Si     0.000033333333     0.085366666667     0.327900000000     0          
T        Si     0.025500000000     0.221566666667     0.245200000000     0          
T        Si     0.085366666667     0.000900000000     0.169300000000     0          
T        Si     0.026700000000     0.223433333333     0.087500000000     0          
T        Si     0.027433333333     0.223300000000     0.587300000000     0          
T        Si     0.000000000000     0.084433333333     0.500000000000     0          
T        Si     0.083633333333     0.000000000000     0.000000000000     0          
O        O      0.231533333333     0.230066666667     0.375800000000     0          
O        O      0.212533333333     0.219666666667     0.293000000000     0          
O        O      0.116966666667     0.108900000000     0.208700000000     0          
O        O      0.329600000000     0.103900000000     0.123500000000     0          
O        O      0.102233333333     0.115633333333     0.040200000000     0          
O        O      0.103933333333     0.115833333333     0.540500000000     0          
T        Si     0.247966666667     0.248000000000     0.327900000000     0          
T        Si     0.111766666667     0.137266666667     0.245200000000     0          
T        Si     0.332433333333     0.084466666667     0.169300000000     0          
T        Si     0.109900000000     0.136600000000     0.087500000000     0          
T        Si     0.110033333333     0.137466666667     0.587300000000     0          
T        Si     0.248900000000     0.248900000000     0.500000000000     0          
T        Si     0.000000000000     0.083633333333     0.000000000000     0          
O        O      0.001466666667     0.103266666667     0.624200000000     0          
O        O      0.326200000000     0.113666666667     0.707000000000     0          
O        O      0.008066666667     0.224433333333     0.791300000000     0          
O        O      0.225700000000     0.229433333333     0.876500000000     0          
O        O      0.319933333333     0.217700000000     0.959800000000     0          
O        O      0.321433333333     0.217500000000     0.459500000000     0          
T        Si     0.333300000000     0.085333333333     0.672100000000     0          
T        Si     0.307833333333     0.196066666667     0.754800000000     0          
T        Si     0.247966666667     0.248866666667     0.830700000000     0          
T        Si     0.306633333333     0.196733333333     0.912500000000     0          
T        Si     0.305900000000     0.195866666667     0.412700000000     0          
O        O      0.230066666667     0.231533333333     0.624200000000     0          
O        O      0.219666666667     0.212533333333     0.707000000000     0          
O        O      0.108900000000     0.116966666667     0.791300000000     0          
O        O      0.103900000000     0.329600000000     0.876500000000     0          
O        O      0.115633333333     0.102233333333     0.959800000000     0          
O        O      0.115833333333     0.103933333333     0.459500000000     0          
T        Si     0.248000000000     0.247966666667     0.672100000000     0          
T        Si     0.137266666667     0.111766666667     0.754800000000     0          
T        Si     0.084466666667     0.332433333333     0.830700000000     0          
T        Si     0.136600000000     0.109900000000     0.912500000000     0          
T        Si     0.137466666667     0.110033333333     0.412700000000     0          
O        O      0.101800000000     0.331866666667     0.624200000000     0          
O        O      0.120800000000     0.007133333333     0.707000000000     0          
O        O      0.216366666667     0.325266666667     0.791300000000     0          
O        O      0.003733333333     0.107633333333     0.876500000000     0          
O        O      0.231100000000     0.013400000000     0.959800000000     0          
O        O      0.229400000000     0.011900000000     0.459500000000     0          
T        Si     0.085366666667     0.000033333333     0.672100000000     0          
T        Si     0.221566666667     0.025500000000     0.754800000000     0          
T        Si     0.000900000000     0.085366666667     0.830700000000     0          
T        Si     0.223433333333     0.026700000000     0.912500000000     0          
T        Si     0.223300000000     0.027433333333     0.412700000000     0          
O        O      0.230066666667     0.665200000000     0.624200000000     0          
O        O      0.295833333333     0.370833333333     0.675300000000     0          
O        O      0.219666666667     0.340466666667     0.707000000000     0          
O        O      0.245900000000     0.622966666667     0.682700000000     0          
O        O      0.133733333333     0.400200000000     0.761800000000     0          
O        O      0.185400000000     0.370800000000     0.760400000000     0          
O        O      0.108900000000     0.658600000000     0.791300000000     0          
O        O      0.090266666667     0.378466666667     0.825600000000     0          
O        O      0.035400000000     0.404166666667     0.828800000000     0          
O        O      0.103900000000     0.440966666667     0.876500000000     0          
O        O      0.148833333333     0.407766666667     0.902800000000     0          
O        O      0.177833333333     0.355700000000     0.910800000000     0          
O        O      0.115633333333     0.346733333333     0.959800000000     0          
O        O      0.077900000000     0.372266666667     0.013900000000     0          
O        O      0.153266666667     0.409966666667     0.407300000000     0          
O        O      0.176333333333     0.352700000000     0.408100000000     0          
O        O      0.115833333333     0.345233333333     0.459500000000     0          
O        O      0.293866666667     0.372800000000     0.512300000000     0          
T        Si     0.248000000000     0.333366666667     0.672100000000     0          
T        Si     0.137266666667     0.358833333333     0.754800000000     0          
T        Si     0.084466666667     0.418700000000     0.830700000000     0          
T        Si     0.136600000000     0.360033333333     0.912500000000     0          
T        Si     0.137466666667     0.360766666667     0.412700000000     0          
T        Si     0.248900000000     0.333333333333     0.500000000000     0          
T        Si     0.083633333333     0.416966666667     0.000000000000     0          
O        O      0.001466666667     0.564866666667     0.624200000000     0          
O        O      0.295833333333     0.591666666667     0.675300000000     0          
O        O      0.326200000000     0.545866666667     0.707000000000     0          
O        O      0.043700000000     0.622933333333     0.682700000000     0          
O        O      0.266466666667     0.400200000000     0.761800000000     0          
O        O      0.295866666667     0.481266666667     0.760400000000     0          
O        O      0.008066666667     0.450300000000     0.791300000000     0          
O        O      0.288200000000     0.378466666667     0.825600000000     0          
O        O      0.262500000000     0.631233333333     0.828800000000     0          
O        O      0.225700000000     0.662933333333     0.876500000000     0          
O        O      0.258900000000     0.407733333333     0.902800000000     0          
O        O      0.310966666667     0.488800000000     0.910800000000     0          
O        O      0.319933333333     0.435566666667     0.959800000000     0          
O        O      0.294400000000     0.372300000000     0.013900000000     0          
O        O      0.256700000000     0.409966666667     0.407300000000     0          
O        O      0.313966666667     0.490300000000     0.408100000000     0          
O        O      0.321433333333     0.437266666667     0.459500000000     0          
O        O      0.293866666667     0.587733333333     0.512300000000     0          
T        Si     0.333300000000     0.581300000000     0.672100000000     0          
T        Si     0.307833333333     0.445100000000     0.754800000000     0          
T        Si     0.247966666667     0.665766666667     0.830700000000     0          
T        Si     0.306633333333     0.443233333333     0.912500000000     0          
T        Si     0.305900000000     0.443366666667     0.412700000000     0          
T        Si     0.000000000000     0.582233333333     0.500000000000     0          
T        Si     0.249700000000     0.333333333333     0.000000000000     0          
O        O      0.101800000000     0.436600000000     0.624200000000     0          
O        O      0.075000000000     0.370833333333     0.675300000000     0          
O        O      0.120800000000     0.447000000000     0.707000000000     0          
O        O      0.043733333333     0.420766666667     0.682700000000     0          
O        O      0.266466666667     0.532933333333     0.761800000000     0          
O        O      0.185400000000     0.481266666667     0.760400000000     0          
O        O      0.216366666667     0.557766666667     0.791300000000     0          
O        O      0.288200000000     0.576400000000     0.825600000000     0          
O        O      0.035433333333     0.631266666667     0.828800000000     0          
O        O      0.003733333333     0.562766666667     0.876500000000     0          
O        O      0.258933333333     0.517833333333     0.902800000000     0          
O        O      0.177866666667     0.488833333333     0.910800000000     0          
O        O      0.231100000000     0.551033333333     0.959800000000     0          
O        O      0.294366666667     0.588766666667     0.013900000000     0          
O        O      0.256700000000     0.513400000000     0.407300000000     0          
O        O      0.176366666667     0.490333333333     0.408100000000     0          
O        O      0.229400000000     0.550833333333     0.459500000000     0          
O        O      0.078933333333     0.372800000000     0.512300000000     0          
T        Si     0.085366666667     0.418666666667     0.672100000000     0          
T        Si     0.221566666667     0.529400000000     0.754800000000     0          
T        Si     0.000900000000     0.582200000000     0.830700000000     0          
T        Si     0.223433333333     0.530066666667     0.912500000000     0          
T        Si     0.223300000000     0.529200000000     0.412700000000     0          
T        Si     0.084433333333     0.417766666667     0.500000000000     0          
T        Si     0.000000000000     0.583033333333     0.000000000000     0          
O        O      0.331866666667     0.563400000000     0.375800000000     0          
O        O      0.037500000000     0.629166666667     0.324700000000     0          
O        O      0.007133333333     0.553000000000     0.293000000000     0          
O        O      0.289633333333     0.579233333333     0.317300000000     0          
O        O      0.066866666667     0.467066666667     0.238200000000     0          
O        O      0.037466666667     0.518733333333     0.239600000000     0          
O        O      0.325266666667     0.442233333333     0.208700000000     0          
O        O      0.045133333333     0.423600000000     0.174400000000     0          
O        O      0.070833333333     0.368733333333     0.171200000000     0          
O        O      0.107633333333     0.437233333333     0.123500000000     0          
O        O      0.074433333333     0.482166666667     0.097200000000     0          
O        O      0.022366666667     0.511166666667     0.089200000000     0          
O        O      0.013400000000     0.448966666667     0.040200000000     0          
O        O      0.038933333333     0.411233333333     0.986100000000     0          
O        O      0.076633333333     0.486600000000     0.592700000000     0          
O        O      0.019366666667     0.509666666667     0.591900000000     0          
O        O      0.011900000000     0.449166666667     0.540500000000     0          
O        O      0.039466666667     0.627200000000     0.487700000000     0          
T        Si     0.000033333333     0.581333333333     0.327900000000     0          
T        Si     0.025500000000     0.470600000000     0.245200000000     0          
T        Si     0.085366666667     0.417800000000     0.169300000000     0          
T        Si     0.026700000000     0.469933333333     0.087500000000     0          
T        Si     0.027433333333     0.470800000000     0.587300000000     0          
O        O      0.103266666667     0.435133333333     0.375800000000     0          
O        O      0.037500000000     0.408333333333     0.324700000000     0          
O        O      0.113666666667     0.454133333333     0.293000000000     0          
O        O      0.087433333333     0.377066666667     0.317300000000     0          
O        O      0.199600000000     0.599800000000     0.238200000000     0          
O        O      0.147933333333     0.518733333333     0.239600000000     0          
O        O      0.224433333333     0.549700000000     0.208700000000     0          
O        O      0.243066666667     0.621533333333     0.174400000000     0          
O        O      0.297933333333     0.368766666667     0.171200000000     0          
O        O      0.229433333333     0.337066666667     0.123500000000     0          
O        O      0.184500000000     0.592266666667     0.097200000000     0          
O        O      0.155500000000     0.511200000000     0.089200000000     0          
O        O      0.217700000000     0.564433333333     0.040200000000     0          
O        O      0.255433333333     0.627700000000     0.986100000000     0          
O        O      0.180066666667     0.590033333333     0.592700000000     0          
O        O      0.157000000000     0.509700000000     0.591900000000     0          
O        O      0.217500000000     0.562733333333     0.540500000000     0          
O        O      0.039466666667     0.412266666667     0.487700000000     0          
T        Si     0.085333333333     0.418700000000     0.327900000000     0          
T        Si     0.196066666667     0.554900000000     0.245200000000     0          
T        Si     0.248866666667     0.334233333333     0.169300000000     0          
T        Si     0.196733333333     0.556766666667     0.087500000000     0          
T        Si     0.195866666667     0.556633333333     0.587300000000     0          
O        O      0.231533333333     0.334800000000     0.375800000000     0          
O        O      0.258333333333     0.629166666667     0.324700000000     0          
O        O      0.212533333333     0.659533333333     0.293000000000     0          
O        O      0.289600000000     0.377033333333     0.317300000000     0          
O        O      0.066866666667     0.599800000000     0.238200000000     0          
O        O      0.147933333333     0.629200000000     0.239600000000     0          
O        O      0.116966666667     0.341400000000     0.208700000000     0          
O        O      0.045133333333     0.621533333333     0.174400000000     0          
O        O      0.297900000000     0.595833333333     0.171200000000     0          
O        O      0.329600000000     0.559033333333     0.123500000000     0          
O        O      0.074400000000     0.592233333333     0.097200000000     0          
O        O      0.155466666667     0.644300000000     0.089200000000     0          
O        O      0.102233333333     0.653266666667     0.040200000000     0          
O        O      0.038966666667     0.627733333333     0.986100000000     0          
O        O      0.076633333333     0.590033333333     0.592700000000     0          
O        O      0.156966666667     0.647300000000     0.591900000000     0          
O        O      0.103933333333     0.654766666667     0.540500000000     0          
O        O      0.254400000000     0.627200000000     0.487700000000     0          
T        Si     0.247966666667     0.666633333333     0.327900000000     0          
T        Si     0.111766666667     0.641166666667     0.245200000000     0          
T        Si     0.332433333333     0.581300000000     0.169300000000     0          
T        Si     0.109900000000     0.639966666667     0.087500000000     0          
T        Si     0.110033333333     0.639233333333     0.587300000000     0          
O        O      0.103266666667     0.334800000000     0.375800000000     0          
O        O      0.113666666667     0.659533333333     0.293000000000     0          
O        O      0.224433333333     0.341400000000     0.208700000000     0          
O        O      0.229433333333     0.559033333333     0.123500000000     0          
O        O      0.217700000000     0.653266666667     0.040200000000     0          
O        O      0.217500000000     0.654766666667     0.540500000000     0          
T        Si     0.085333333333     0.666633333333     0.327900000000     0          
T        Si     0.196066666667     0.641166666667     0.245200000000     0          
T        Si     0.248866666667     0.581300000000     0.169300000000     0          
T        Si     0.196733333333     0.639966666667     0.087500000000     0          
T        Si     0.195866666667     0.639233333333     0.587300000000     0          
T        Si     0.084433333333     0.333333333333     0.500000000000     0          
T        Si     0.249700000000     0.583033333333     0.000000000000     0          
O        O      0.331866666667     0.435133333333     0.375800000000     0          
O        O      0.007133333333     0.454133333333     0.293000000000     0          
O        O      0.325266666667     0.549700000000     0.208700000000     0          
O        O      0.107633333333     0.337066666667     0.123500000000     0          
O        O      0.013400000000     0.564433333333     0.040200000000     0          
O        O      0.011900000000     0.562733333333     0.540500000000     0          
T        Si     0.000033333333     0.418700000000     0.327900000000     0          
T        Si     0.025500000000     0.554900000000     0.245200000000     0          
T        Si     0.085366666667     0.334233333333     0.169300000000     0          
T        Si     0.026700000000     0.556766666667     0.087500000000     0          
T        Si     0.027433333333     0.556633333333     0.587300000000     0          
T        Si     0.000000000000     0.417766666667     0.500000000000     0          
T        Si     0.083633333333     0.333333333333     0.000000000000     0          
O        O      0.231533333333     0.563400000000     0.375800000000     0          
O        O      0.212533333333     0.553000000000     0.293000000000     0          
O        O      0.116966666667     0.442233333333     0.208700000000     0          
O        O      0.329600000000     0.437233333333     0.123500000000     0          
O        O      0.102233333333     0.448966666667     0.040200000000     0          
O        O      0.103933333333     0.449166666667     0.540500000000     0          
T        Si     0.247966666667     0.581333333333     0.327900000000     0          
T        Si     0.111766666667     0.470600000000     0.245200000000     0          
T        Si     0.332433333333     0.417800000000     0.169300000000     0          
T        Si     0.109900000000     0.469933333333     0.087500000000     0          
T        Si     0.110033333333     0.470800000000     0.587300000000     0          
T        Si     0.248900000000     0.582233333333     0.500000000000     0          
T        Si     0.000000000000     0.416966666667     0.000000000000     0          
O        O      0.001466666667     0.436600000000     0.624200000000     0          
O        O      0.326200000000     0.447000000000     0.707000000000     0          
O        O      0.008066666667     0.557766666667     0.791300000000     0          
O        O      0.225700000000     0.562766666667     0.876500000000     0          
O        O      0.319933333333     0.551033333333     0.959800000000     0          
O        O      0.321433333333     0.550833333333     0.459500000000     0          
T        Si     0.333300000000     0.418666666667     0.672100000000     0          
T        Si     0.307833333333     0.529400000000     0.754800000000     0          
T        Si     0.247966666667     0.582200000000     0.830700000000     0          
T        Si     0.306633333333     0.530066666667     0.912500000000     0          
T        Si     0.305900000000     0.529200000000     0.412700000000     0          
O        O      0.230066666667     0.564866666667     0.624200000000     0          
O        O      0.219666666667     0.545866666667     0.707000000000     0          
O        O      0.108900000000     0.450300000000     0.791300000000     0          
O        O      0.103900000000     0.662933333333     0.876500000000     0          
O        O      0.115633333333     0.435566666667     0.959800000000     0          
O        O      0.115833333333     0.437266666667     0.459500000000     0          
T        Si     0.248000000000     0.581300000000     0.672100000000     0          
T        Si     0.137266666667     0.445100000000     0.754800000000     0          
T        Si     0.084466666667     0.665766666667     0.830700000000     0          
T        Si     0.136600000000     0.443233333333     0.912500000000     0          
T        Si     0.137466666667     0.443366666667     0.412700000000     0          
O        O      0.101800000000     0.665200000000     0.624200000000     0          
O        O      0.120800000000     0.340466666667     0.707000000000     0          
O        O      0.216366666667     0.658600000000     0.791300000000     0          
O        O      0.003733333333     0.440966666667     0.876500000000     0          
O        O      0.231100000000     0.346733333333     0.959800000000     0          
O        O      0.229400000000     0.345233333333     0.459500000000     0          
T        Si     0.085366666667     0.333366666667     0.672100000000     0          
T        Si     0.221566666667     0.358833333333     0.754800000000     0          
T        Si     0.000900000000     0.418700000000     0.830700000000     0          
T        Si     0.223433333333     0.360033333333     0.912500000000     0          
T        Si     0.223300000000     0.360766666667     0.412700000000     0          
O        O      0.230066666667     0.998533333333     0.624200000000     0          
O        O      0.295833333333     0.704166666667     0.675300000000     0          
O        O      0.219666666667     0.673800000000     0.707000000000     0          
O        O      0.245900000000     0.956300000000     0.682700000000     0          
O        O      0.133733333333     0.733533333333     0.761800000000     0          
O        O      0.185400000000     0.704133333333     0.760400000000     0          
O        O      0.108900000000     0.991933333333     0.791300000000     0          
O        O      0.090266666667     0.711800000000     0.825600000000     0          
O        O      0.035400000000     0.737500000000     0.828800000000     0          
O        O      0.103900000000     0.774300000000     0.876500000000     0          
O        O      0.148833333333     0.741100000000     0.902800000000     0          
O        O      0.177833333333     0.689033333333     0.910800000000     0          
O        O      0.115633333333     0.680066666667     0.959800000000     0          
O        O      0.077900000000     0.705600000000     0.013900000000     0          
O        O      0.153266666667     0.743300000000     0.407300000000     0          
O        O      0.176333333333     0.686033333333     0.408100000000     0          
O        O      0.115833333333     0.678566666667     0.459500000000     0          
O        O      0.293866666667     0.706133333333     0.512300000000     0          
T        Si     0.248000000000     0.666700000000     0.672100000000     0          
T        Si     0.137266666667     0.692166666667     0.754800000000     0          
T        Si     0.084466666667     0.752033333333     0.830700000000     0          
T        Si     0.136600000000     0.693366666667     0.912500000000     0          
T        Si     0.137466666667     0.694100000000     0.412700000000     0          
T        Si     0.248900000000     0.666666666667     0.500000000000     0          
T        Si     0.083633333333     0.750300000000     0.000000000000     0          
O        O      0.001466666667     0.898200000000     0.624200000000     0          
O        O      0.295833333333     0.925000000000     0.675300000000     0          
O        O      0.326200000000     0.879200000000     0.707000000000     0          
O        O      0.043700000000     0.956266666667     0.682700000000     0          
O        O      0.266466666667     0.733533333333     0.761800000000     0          
O        O      0.295866666667     0.814600000000     0.760400000000     0          
O        O      0.008066666667     0.783633333333     0.791300000000     0          
O        O      0.288200000000     0.711800000000     0.825600000000     0          
O        O      0.262500000000     0.964566666667     0.828800000000     0          
O        O      0.225700000000     0.996266666667     0.876500000000     0          
O        O      0.258900000000     0.741066666667     0.902800000000     0          
O        O      0.310966666667     0.822133333333     0.910800000000     0          
O        O      0.319933333333     0.768900000000     0.959800000000     0          
O        O      0.294400000000     0.705633333333     0.013900000000     0          
O        O      0.256700000000     0.743300000000     0.407300000000     0          
O        O      0.313966666667     0.823633333333     0.408100000000     0          
O        O      0.321433333333     0.770600000000     0.459500000000     0          
O        O      0.293866666667     0.921066666667     0.512300000000     0          
T        Si     0.333300000000     0.914633333333     0.672100000000     0          
T        Si     0.307833333333     0.778433333333     0.754800000000     0          
T        Si     0.247966666667     0.999100000000     0.830700000000     0          
T        Si     0.306633333333     0.776566666667     0.912500000000     0          
T        Si     0.305900000000     0.776700000000     0.412700000000     0          
T        Si     0.000000000000     0.915566666667     0.500000000000     0          
T        Si     0.249700000000     0.666666666667     0.000000000000     0          
O        O      0.101800000000     0.769933333333     0.624200000000     0          
O        O      0.075000000000     0.704166666667     0.675300000000     0          
O        O      0.120800000000     0.780333333333     0.707000000000     0          
O        O      0.043733333333     0.754100000000     0.682700000000     0          
O        O      0.266466666667     0.866266666667     0.761800000000     0          
O        O      0.185400000000     0.814600000000     0.760400000000     0          
O        O      0.216366666667     0.891100000000     0.791300000000     0          
O        O      0.288200000000     0.909733333333     0.825600000000     0          
O        O      0.035433333333     0.964600000000     0.828800000000     0          
O        O      0.003733333333     0.896100000000     0.876500000000     0          
O        O      0.258933333333     0.851166666667     0.902800000000     0          
O        O      0.177866666667     0.822166666667     0.910800000000     0          
O        O      0.231100000000     0.884366666667     0.959800000000     0          
O        O      0.294366666667     0.922100000000     0.013900000000     0          
O        O      0.256700000000     0.846733333333     0.407300000000     0          
O        O      0.176366666667     0.823666666667     0.408100000000     0          
O        O      0.229400000000     0.884166666667     0.459500000000     0          
O        O      0.078933333333     0.706133333333     0.512300000000     0          
T        Si     0.085366666667     0.752000000000     0.672100000000     0          
T        Si     0.221566666667     0.862733333333     0.754800000000     0          
T        Si     0.000900000000     0.915533333333     0.830700000000     0          
T        Si     0.223433333333     0.863400000000     0.912500000000     0          
T        Si     0.223300000000     0.862533333333     0.412700000000     0          
T        Si     0.084433333333     0.751100000000     0.500000000000     0          
T        Si     0.000000000000     0.916366666667     0.000000000000     0          
O        O      0.331866666667     0.896733333333     0.375800000000     0          
O        O      0.037500000000     0.962500000000     0.324700000000     0          
O        O      0.007133333333     0.886333333333     0.293000000000     0          
O        O      0.289633333333     0.912566666667     0.317300000000     0          
O        O      0.066866666667     0.800400000000     0.238200000000     0          
O        O      0.037466666667     0.852066666667     0.239600000000     0          
O        O      0.325266666667     0.775566666667     0.208700000000     0          
O        O      0.045133333333     0.756933333333     0.174400000000     0          
O        O      0.070833333333     0.702066666667     0.171200000000     0          
O        O      0.107633333333     0.770566666667     0.123500000000     0          
O        O      0.074433333333     0.815500000000     0.097200000000     0          
O        O      0.022366666667     0.844500000000     0.089200000000     0          
O        O      0.013400000000     0.782300000000     0.040200000000     0          
O        O      0.038933333333     0.744566666667     0.986100000000     0          
O        O      0.076633333333     0.819933333333     0.592700000000     0          
O        O      0.019366666667     0.843000000000     0.591900000000     0          
O        O      0.011900000000     0.782500000000     0.540500000000     0          
O        O      0.039466666667     0.960533333333     0.487700000000     0          
T        Si     0.000033333333     0.914666666667     0.327900000000     0          
T        Si     0.025500000000     0.803933333333     0.245200000000     0          
T        Si     0.085366666667     0.751133333333     0.169300000000     0          
T        Si     0.026700000000     0.803266666667     0.087500000000     0          
T        Si     0.027433333333     0.804133333333     0.587300000000     0          
O        O      0.103266666667     0.768466666667     0.375800000000     0          
O        O      0.037500000000     0.741666666667     0.324700000000     0          
O        O      0.113666666667     0.787466666667     0.293000000000     0          
O        O      0.087433333333     0.710400000000     0.317300000000     0          
O        O      0.199600000000     0.933133333333     0.238200000000     0          
O        O      0.147933333333     0.852066666667     0.239600000000     0          
O        O      0.224433333333     0.883033333333     0.208700000000     0          
O        O      0.243066666667     0.954866666667     0.174400000000     0          
O        O      0.297933333333     0.702100000000     0.171200000000     0          
O        O      0.229433333333     0.670400000000     0.123500000000     0          
O        O      0.184500000000     0.925600000000     0.097200000000     0          
O        O      0.155500000000     0.844533333333     0.089200000000     0          
O        O      0.217700000000     0.897766666667     0.040200000000     0          
O        O      0.255433333333     0.961033333333     0.986100000000     0          
O        O      0.180066666667     0.923366666667     0.592700000000     0          
O        O      0.157000000000     0.843033333333     0.591900000000     0          
O        O      0.217500000000     0.896066666667     0.540500000000     0          
O        O      0.039466666667     0.745600000000     0.487700000000     0          
T        Si     0.085333333333     0.752033333333     0.327900000000     0          
T        Si     0.196066666667     0.888233333333     0.245200000000     0          
T        Si     0.248866666667     0.667566666667     0.169300000000     0          
T        Si     0.196733333333     0.890100000000     0.087500000000     0          
T        Si     0.195866666667     0.889966666667     0.587300000000     0          
O        O      0.231533333333     0.668133333333     0.375800000000     0          
O        O      0.258333333333     0.962500000000     0.324700000000     0          
O        O      0.212533333333     0.992866666667     0.293000000000     0          
O        O      0.289600000000     0.710366666667     0.317300000000     0          
O        O      0.066866666667     0.933133333333     0.238200000000     0          
O        O      0.147933333333     0.962533333333     0.239600000000     0          
O        O      0.116966666667     0.674733333333     0.208700000000     0          
O        O      0.045133333333     0.954866666667     0.174400000000     0          
O        O      0.297900000000     0.929166666667     0.171200000000     0          
O        O      0.329600000000     0.892366666667     0.123500000000     0          
O        O      0.074400000000     0.925566666667     0.097200000000     0          
O        O      0.155466666667     0.977633333333     0.089200000000     0          
O        O      0.102233333333     0.986600000000     0.040200000000     0          
O        O      0.038966666667     0.961066666667     0.986100000000     0          
O        O      0.076633333333     0.923366666667     0.592700000000     0          
O        O      0.156966666667     0.980633333333     0.591900000000     0          
O        O      0.103933333333     0.988100000000     0.540500000000     0          
O        O      0.254400000000     0.960533333333     0.487700000000     0          
T        Si     0.247966666667     0.999966666667     0.327900000000     0          
T        Si     0.111766666667     0.974500000000     0.245200000000     0          
T        Si     0.332433333333     0.914633333333     0.169300000000     0          
T        Si     0.109900000000     0.973300000000     0.087500000000     0          
T        Si     0.110033333333     0.972566666667     0.587300000000     0          
O        O      0.103266666667     0.668133333333     0.375800000000     0          
O        O      0.113666666667     0.992866666667     0.293000000000     0          
O        O      0.224433333333     0.674733333333     0.208700000000     0          
O        O      0.229433333333     0.892366666667     0.123500000000     0          
O        O      0.217700000000     0.986600000000     0.040200000000     0          
O        O      0.217500000000     0.988100000000     0.540500000000     0          
T        Si     0.085333333333     0.999966666667     0.327900000000     0          
T        Si     0.196066666667     0.974500000000     0.245200000000     0          
T        Si     0.248866666667     0.914633333333     0.169300000000     0          
T        Si     0.196733333333     0.973300000000     0.087500000000     0          
T        Si     0.195866666667     0.972566666667     0.587300000000     0          
T        Si     0.084433333333     0.666666666667     0.500000000000     0          
T        Si     0.249700000000     0.916366666667     0.000000000000     0          
O        O      0.331866666667     0.768466666667     0.375800000000     0          
O        O      0.007133333333     0.787466666667     0.293000000000     0          
O        O      0.325266666667     0.883033333333     0.208700000000     0          
O        O      0.107633333333     0.670400000000     0.123500000000     0          
O        O      0.013400000000     0.897766666667     0.040200000000     0          
O        O      0.011900000000     0.896066666667     0.540500000000     0          
T        Si     0.000033333333     0.752033333333     0.327900000000     0          
T        Si     0.025500000000     0.888233333333     0.245200000000     0          
T        Si     0.085366666667     0.667566666667     0.169300000000     0          
T        Si     0.026700000000     0.890100000000     0.087500000000     0          
T        Si     0.027433333333     0.889966666667     0.587300000000     0          
T        Si     0.000000000000     0.751100000000     0.500000000000     0          
T        Si     0.083633333333     0.666666666667     0.000000000000     0          
O        O      0.231533333333     0.896733333333     0.375800000000     0          
O        O      0.212533333333     0.886333333333     0.293000000000     0          
O        O      0.116966666667     0.775566666667     0.208700000000     0          
O        O      0.329600000000     0.770566666667     0.123500000000     0          
O        O      0.102233333333     0.782300000000     0.040200000000     0          
O        O      0.103933333333     0.782500000000     0.540500000000     0          
T        Si     0.247966666667     0.914666666667     0.327900000000     0          
T        Si     0.111766666667     0.803933333333     0.245200000000     0          
T        Si     0.332433333333     0.751133333333     0.169300000000     0          
T        Si     0.109900000000     0.803266666667     0.087500000000     0          
T        Si     0.110033333333     0.804133333333     0.587300000000     0          
T        Si     0.248900000000     0.915566666667     0.500000000000     0          
T        Si     0.000000000000     0.750300000000     0.000000000000     0          
O        O      0.001466666667     0.769933333333     0.624200000000     0          
O        O      0.326200000000     0.780333333333     0.707000000000     0          
O        O      0.008066666667     0.891100000000     0.791300000000     0          
O        O      0.225700000000     0.896100000000     0.876500000000     0          
O        O      0.319933333333     0.884366666667     0.959800000000     0          
O        O      0.321433333333     0.884166666667     0.459500000000     0          
T        Si     0.333300000000     0.752000000000     0.672100000000     0          
T        Si     0.307833333333     0.862733333333     0.754800000000     0          
T        Si     0.247966666667     0.915533333333     0.830700000000     0          
T        Si     0.306633333333     0.863400000000     0.912500000000     0          
T        Si     0.305900000000     0.862533333333     0.412700000000     0          
O        O      0.230066666667     0.898200000000     0.624200000000     0          
O        O      0.219666666667     0.879200000000     0.707000000000     0          
O        O      0.108900000000     0.783633333333     0.791300000000     0          
O        O      0.103900000000     0.996266666667     0.876500000000     0          
O        O      0.115633333333     0.768900000000     0.959800000000     0          
O        O      0.115833333333     0.770600000000     0.459500000000     0          
T        Si     0.248000000000     0.914633333333     0.672100000000     0          
T        Si     0.137266666667     0.778433333333     0.754800000000     0          
T        Si     0.084466666667     0.999100000000     0.830700000000     0          
T        Si     0.136600000000     0.776566666667     0.912500000000     0          
T        Si     0.137466666667     0.776700000000     0.412700000000     0          
O        O      0.101800000000     0.998533333333     0.624200000000     0          
O        O      0.120800000000     0.673800000000     0.707000000000     0          
O        O      0.216366666667     0.991933333333     0.791300000000     0          
O        O      0.003733333333     0.774300000000     0.876500000000     0          
O        O      0.231100000000     0.680066666667     0.959800000000     0          
O        O      0.229400000000     0.678566666667     0.459500000000     0          
T        Si     0.085366666667     0.666700000000     0.672100000000     0          
T        Si     0.221566666667     0.692166666667     0.754800000000     0          
T        Si     0.000900000000     0.752033333333     0.830700000000     0          
T        Si     0.223433333333     0.693366666667     0.912500000000     0          
T        Si     0.223300000000     0.694100000000     0.412700000000     0          
O        O      0.563400000000     0.331866666667     0.624200000000     0          
O        O      0.629166666667     0.037500000000     0.675300000000     0          
O        O      0.553000000000     0.007133333333     0.707000000000     0          
O        O      0.579233333333     0.289633333333     0.682700000000     0          
O        O      0.467066666667     0.066866666667     0.761800000000     0          
O        O      0.518733333333     0.037466666667     0.760400000000     0          
O        O      0.442233333333     0.325266666667     0.791300000000     0          
O        O      0.423600000000     0.045133333333     0.825600000000     0          
O        O      0.368733333333     0.070833333333     0.828800000000     0          
O        O      0.437233333333     0.107633333333     0.876500000000     0          
O        O      0.482166666667     0.074433333333     0.902800000000     0          
O        O      0.511166666667     0.022366666667     0.910800000000     0          
O        O      0.448966666667     0.013400000000     0.959800000000     0          
O        O      0.411233333333     0.038933333333     0.013900000000     0          
O        O      0.486600000000     0.076633333333     0.407300000000     0          
O        O      0.509666666667     0.019366666667     0.408100000000     0          
O        O      0.449166666667     0.011900000000     0.459500000000     0          
O        O      0.627200000000     0.039466666667     0.512300000000     0          
T        Si     0.581333333333     0.000033333333     0.672100000000     0          
T        Si     0.470600000000     0.025500000000     0.754800000000     0          
T        Si     0.417800000000     0.085366666667     0.830700000000     0          
T        Si     0.469933333333     0.026700000000     0.912500000000     0          
T        Si     0.470800000000     0.027433333333     0.412700000000     0          
T        Si     0.582233333333     0.000000000000     0.500000000000     0          
T        Si     0.416966666667     0.083633333333     0.000000000000     0          
O        O      0.334800000000     0.231533333333     0.624200000000     0          
O        O      0.629166666667     0.258333333333     0.675300000000     0          
O        O      0.659533333333     0.212533333333     0.707000000000     0          
O        O      0.377033333333     0.289600000000     0.682700000000     0          
O        O      0.599800000000     0.066866666667     0.761800000000     0          
O        O      0.629200000000     0.147933333333     0.760400000000     0          
O        O      0.341400000000     0.116966666667     0.791300000000     0          
O        O      0.621533333333     0.045133333333     0.825600000000     0          
O        O      0.595833333333     0.297900000000     0.828800000000     0          
O        O      0.559033333333     0.329600000000     0.876500000000     0          
O        O      0.592233333333     0.074400000000     0.902800000000     0          
O        O      0.644300000000     0.155466666667     0.910800000000     0          
O        O      0.653266666667     0.102233333333     0.959800000000     0          
O        O      0.627733333333     0.038966666667     0.013900000000     0          
O        O      0.590033333333     0.076633333333     0.407300000000     0          
O        O      0.647300000000     0.156966666667     0.408100000000     0          
O        O      0.654766666667     0.103933333333     0.459500000000     0          
O        O      0.627200000000     0.254400000000     0.512300000000     0          
T        Si     0.666633333333     0.247966666667     0.672100000000     0          
T        Si     0.641166666667     0.111766666667     0.754800000000     0          
T        Si     0.581300000000     0.332433333333     0.830700000000     0          
T        Si     0.639966666667     0.109900000000     0.912500000000     0          
T        Si     0.639233333333     0.110033333333     0.412700000000     0          
T        Si     0.333333333333     0.248900000000     0.500000000000     0          
T        Si     0.583033333333     0.000000000000     0.000000000000     0          
O        O      0.435133333333     0.103266666667     0.624200000000     0          
O        O      0.408333333333     0.037500000000     0.675300000000     0          
O        O      0.454133333333     0.113666666667     0.707000000000     0          
O        O      0.377066666667     0.087433333333     0.682700000000     0          
O        O      0.599800000000     0.199600000000     0.761800000000     0          
O        O      0.518733333333     0.147933333333     0.760400000000     0          
O        O      0.549700000000     0.224433333333     0.791300000000     0          
O        O      0.621533333333     0.243066666667     0.825600000000     0          
O        O      0.368766666667     0.297933333333     0.828800000000     0          
O        O      0.337066666667     0.229433333333     0.876500000000     0          
O        O      0.592266666667     0.184500000000     0.902800000000     0          
O        O      0.511200000000     0.155500000000     0.910800000000     0          
O        O      0.564433333333     0.217700000000     0.959800000000     0          
O        O      0.627700000000     0.255433333333     0.013900000000     0          
O        O      0.590033333333     0.180066666667     0.407300000000     0          
O        O      0.509700000000     0.157000000000     0.408100000000     0          
O        O      0.562733333333     0.217500000000     0.459500000000     0          
O        O      0.412266666667     0.039466666667     0.512300000000     0          
T        Si     0.418700000000     0.085333333333     0.672100000000     0          
T        Si     0.554900000000     0.196066666667     0.754800000000     0          
T        Si     0.334233333333     0.248866666667     0.830700000000     0          
T        Si     0.556766666667     0.196733333333     0.912500000000     0          
T        Si     0.556633333333     0.195866666667     0.412700000000     0          
T        Si     0.417766666667     0.084433333333     0.500000000000     0          
T        Si     0.333333333333     0.249700000000     0.000000000000     0          
O        O      0.665200000000     0.230066666667     0.375800000000     0          
O        O      0.370833333333     0.295833333333     0.324700000000     0          
O        O      0.340466666667     0.219666666667     0.293000000000     0          
O        O      0.622966666667     0.245900000000     0.317300000000     0          
O        O      0.400200000000     0.133733333333     0.238200000000     0          
O        O      0.370800000000     0.185400000000     0.239600000000     0          
O        O      0.658600000000     0.108900000000     0.208700000000     0          
O        O      0.378466666667     0.090266666667     0.174400000000     0          
O        O      0.404166666667     0.035400000000     0.171200000000     0          
O        O      0.440966666667     0.103900000000     0.123500000000     0          
O        O      0.407766666667     0.148833333333     0.097200000000     0          
O        O      0.355700000000     0.177833333333     0.089200000000     0          
O        O      0.346733333333     0.115633333333     0.040200000000     0          
O        O      0.372266666667     0.077900000000     0.986100000000     0          
O        O      0.409966666667     0.153266666667     0.592700000000     0          
O        O      0.352700000000     0.176333333333     0.591900000000     0          
O        O      0.345233333333     0.115833333333     0.540500000000     0          
O        O      0.372800000000     0.293866666667     0.487700000000     0          
T        Si     0.333366666667     0.248000000000     0.327900000000     0          
T        Si     0.358833333333     0.137266666667     0.245200000000     0          
T        Si     0.418700000000     0.084466666667     0.169300000000     0          
T        Si     0.360033333333     0.136600000000     0.087500000000     0          
T        Si     0.360766666667     0.137466666667     0.587300000000     0          
O        O      0.436600000000     0.101800000000     0.375800000000     0          
O        O      0.370833333333     0.075000000000     0.324700000000     0          
O        O      0.447000000000     0.120800000000     0.293000000000     0          
O        O      0.420766666667     0.043733333333     0.317300000000     0          
O        O      0.532933333333     0.266466666667     0.238200000000     0          
O        O      0.481266666667     0.185400000000     0.239600000000     0          
O        O      0.557766666667     0.216366666667     0.208700000000     0          
O        O      0.576400000000     0.288200000000     0.174400000000     0          
O        O      0.631266666667     0.035433333333     0.171200000000     0          
O        O      0.562766666667     0.003733333333     0.123500000000     0          
O        O      0.517833333333     0.258933333333     0.097200000000     0          
O        O      0.488833333333     0.177866666667     0.089200000000     0          
O        O      0.551033333333     0.231100000000     0.040200000000     0          
O        O      0.588766666667     0.294366666667     0.986100000000     0          
O        O      0.513400000000     0.256700000000     0.592700000000     0          
O        O      0.490333333333     0.176366666667     0.591900000000     0          
O        O      0.550833333333     0.229400000000     0.540500000000     0          
O        O      0.372800000000     0.078933333333     0.487700000000     0          
T        Si     0.418666666667     0.085366666667     0.327900000000     0          
T        Si     0.529400000000     0.221566666667     0.245200000000     0          
T        Si     0.582200000000     0.000900000000     0.169300000000     0          
T        Si     0.530066666667     0.223433333333     0.087500000000     0          
T        Si     0.529200000000     0.223300000000     0.587300000000     0          
O        O      0.564866666667     0.001466666667     0.375800000000     0          
O        O      0.591666666667     0.295833333333     0.324700000000     0          
O        O      0.545866666667     0.326200000000     0.293000000000     0          
O        O      0.622933333333     0.043700000000     0.317300000000     0          
O        O      0.400200000000     0.266466666667     0.238200000000     0          
O        O      0.481266666667     0.295866666667     0.239600000000     0          
O        O      0.450300000000     0.008066666667     0.208700000000     0          
O        O      0.378466666667     0.288200000000     0.174400000000     0          
O        O      0.631233333333     0.262500000000     0.171200000000     0          
O        O      0.662933333333     0.225700000000     0.123500000000     0          
O        O      0.407733333333     0.258900000000     0.097200000000     0          
O        O      0.488800000000     0.310966666667     0.089200000000     0          
O        O      0.435566666667     0.319933333333     0.040200000000     0          
O        O      0.372300000000     0.294400000000     0.986100000000     0          
O        O      0.409966666667     0.256700000000     0.592700000000     0          
O        O      0.490300000000     0.313966666667     0.591900000000     0          
O        O      0.437266666667     0.321433333333     0.540500000000     0          
O        O      0.587733333333     0.293866666667     0.487700000000     0          
T        Si     0.581300000000     0.333300000000     0.327900000000     0          
T        Si     0.445100000000     0.307833333333     0.245200000000     0          
T        Si     0.665766666667     0.247966666667     0.169300000000     0          
T        Si     0.443233333333     0.306633333333     0.087500000000     0          
T        Si     0.443366666667     0.305900000000     0.587300000000     0          
O        O      0.436600000000     0.001466666667     0.375800000000     0          
O        O      0.447000000000     0.326200000000     0.293000000000     0          
O        O      0.557766666667     0.008066666667     0.208700000000     0          
O        O      0.562766666667     0.225700000000     0.123500000000     0          
O        O      0.551033333333     0.319933333333     0.040200000000     0          
O        O      0.550833333333     0.321433333333     0.540500000000     0          
T        Si     0.418666666667     0.333300000000     0.327900000000     0          
T        Si     0.529400000000     0.307833333333     0.245200000000     0          
T        Si     0.582200000000     0.247966666667     0.169300000000     0          
T        Si     0.530066666667     0.306633333333     0.087500000000     0          
T        Si     0.529200000000     0.305900000000     0.587300000000     0          
T        Si     0.417766666667     0.000000000000     0.500000000000     0          
T        Si     0.583033333333     0.249700000000     0.000000000000     0          
O        O      0.665200000000     0.101800000000     0.375800000000     0          
O        O      0.340466666667     0.120800000000     0.293000000000     0          
O        O      0.658600000000     0.216366666667     0.208700000000     0          
O        O      0.440966666667     0.003733333333     0.123500000000     0          
O        O      0.346733333333     0.231100000000     0.040200000000     0          
O        O      0.345233333333     0.229400000000     0.540500000000     0          
T        Si     0.333366666667     0.085366666667     0.327900000000     0          
T        Si     0.358833333333     0.221566666667     0.245200000000     0          
T        Si     0.418700000000     0.000900000000     0.169300000000     0          
T        Si     0.360033333333     0.223433333333     0.087500000000     0          
T        Si     0.360766666667     0.223300000000     0.587300000000     0          
T        Si     0.333333333333     0.084433333333     0.500000000000     0          
T        Si     0.416966666667     0.000000000000     0.000000000000     0          
O        O      0.564866666667     0.230066666667     0.375800000000     0          
O        O      0.545866666667     0.219666666667     0.293000000000     0          
O        O      0.450300000000     0.108900000000     0.208700000000     0          
O        O      0.662933333333     0.103900000000     0.123500000000     0          
O        O      0.435566666667     0.115633333333     0.040200000000     0          
O        O      0.437266666667     0.115833333333     0.540500000000     0          
T        Si     0.581300000000     0.248000000000     0.327900000000     0          
T        Si     0.445100000000     0.137266666667     0.245200000000     0          
T        Si     0.665766666667     0.084466666667     0.169300000000     0          
T        Si     0.443233333333     0.136600000000     0.087500000000     0          
T        Si     0.443366666667     0.137466666667     0.587300000000     0          
T        Si     0.582233333333     0.248900000000     0.500000000000     0          
T        Si     0.333333333333     0.083633333333     0.000000000000     0          
O        O      0.334800000000     0.103266666667     0.624200000000     0          
O        O      0.659533333333     0.113666666667     0.707000000000     0          
O        O      0.341400000000     0.224433333333     0.791300000000     0          
O        O      0.559033333333     0.229433333333     0.876500000000     0          
O        O      0.653266666667     0.217700000000     0.959800000000     0          
O        O      0.654766666667     0.217500000000     0.459500000000     0          
T        Si     0.666633333333     0.085333333333     0.672100000000     0          
T        Si     0.641166666667     0.196066666667     0.754800000000     0          
T        Si     0.581300000000     0.248866666667     0.830700000000     0          
T        Si     0.639966666667     0.196733333333     0.912500000000     0          
T        Si     0.639233333333     0.195866666667     0.412700000000     0          
O        O      0.563400000000     0.231533333333     0.624200000000     0          
O        O      0.553000000000     0.212533333333     0.707000000000     0          
O        O      0.442233333333     0.116966666667     0.791300000000     0          
O        O      0.437233333333     0.329600000000     0.876500000000     0          
O        O      0.448966666667     0.102233333333     0.959800000000     0          
O        O      0.449166666667     0.103933333333     0.459500000000     0          
T        Si     0.581333333333     0.247966666667     0.672100000000     0          
T        Si     0.470600000000     0.111766666667     0.754800000000     0          
T        Si     0.417800000000     0.332433333333     0.830700000000     0          
T        Si     0.469933333333     0.109900000000     0.912500000000     0          
T        Si     0.470800000000     0.110033333333     0.412700000000     0          
O        O      0.435133333333     0.331866666667     0.624200000000     0          
O        O      0.454133333333     0.007133333333     0.707000000000     0          
O        O      0.549700000000     0.325266666667     0.791300000000     0          
O        O      0.337066666667     0.107633333333     0.876500000000     0          
O        O      0.564433333333     0.013400000000     0.959800000000     0          
O        O      0.562733333333     0.011900000000     0.459500000000     0          
T        Si     0.418700000000     0.000033333333     0.672100000000     0          
T        Si     0.554900000000     0.025500000000     0.754800000000     0          
T        Si     0.334233333333     0.085366666667     0.830700000000     0          
T        Si     0.556766666667     0.026700000000     0.912500000000     0          
T        Si     0.556633333333     0.027433333333     0.412700000000     0          
O        O      0.563400000000     0.665200000000     0.624200000000     0          
O        O      0.629166666667     0.370833333333     0.675300000000     0          
O        O      0.553000000000     0.340466666667     0.707000000000     0          
O        O      0.579233333333     0.622966666667     0.682700000000     0          
O        O      0.467066666667     0.400200000000     0.761800000000     0          
O        O      0.518733333333     0.370800000000     0.760400000000     0          
O        O      0.442233333333     0.658600000000     0.791300000000     0          
O        O      0.423600000000     0.378466666667     0.825600000000     0          
O        O      0.368733333333     0.404166666667     0.828800000000     0          
O        O      0.437233333333     0.440966666667     0.876500000000     0          
O        O      0.482166666667     0.407766666667     0.902800000000     0          
O        O      0.511166666667     0.355700000000     0.910800000000     0          
O        O      0.448966666667     0.346733333333     0.959800000000     0          
O        O      0.411233333333     0.372266666667     0.013900000000     0          
O        O      0.486600000000     0.409966666667     0.407300000000     0          
O        O      0.509666666667     0.352700000000     0.408100000000     0          
O        O      0.449166666667     0.345233333333     0.459500000000     0          
O        O      0.627200000000     0.372800000000     0.512300000000     0          
T        Si     0.581333333333     0.333366666667     0.672100000000     0          
T        Si     0.470600000000     0.358833333333     0.754800000000     0          
T        Si     0.417800000000     0.418700000000     0.830700000000     0          
T        Si     0.469933333333     0.360033333333     0.912500000000     0          
T        Si     0.470800000000     0.360766666667     0.412700000000     0          
T        Si     0.582233333333     0.333333333333     0.500000000000     0          
T        Si     0.416966666667     0.416966666667     0.000000000000     0          
O        O      0.334800000000     0.564866666667     0.624200000000     0          
O        O      0.629166666667     0.591666666667     0.675300000000     0          
O        O      0.659533333333     0.545866666667     0.707000000000     0          
O        O      0.377033333333     0.622933333333     0.682700000000     0          
O        O      0.599800000000     0.400200000000     0.761800000000     0          
O        O      0.629200000000     0.481266666667     0.760400000000     0          
O        O      0.341400000000     0.450300000000     0.791300000000     0          
O        O      0.621533333333     0.378466666667     0.825600000000     0          
O        O      0.595833333333     0.631233333333     0.828800000000     0          
O        O      0.559033333333     0.662933333333     0.876500000000     0          
O        O      0.592233333333     0.407733333333     0.902800000000     0          
O        O      0.644300000000     0.488800000000     0.910800000000     0          
O        O      0.653266666667     0.435566666667     0.959800000000     0          
O        O      0.627733333333     0.372300000000     0.013900000000     0          
O        O      0.590033333333     0.409966666667     0.407300000000     0          
O        O      0.647300000000     0.490300000000     0.408100000000     0          
O        O      0.654766666667     0.437266666667     0.459500000000     0          
O        O      0.627200000000     0.587733333333     0.512300000000     0          
T        Si     0.666633333333     0.581300000000     0.672100000000     0          
T        Si     0.641166666667     0.445100000000     0.754800000000     0          
T        Si     0.581300000000     0.665766666667     0.830700000000     0          
T        Si     0.639966666667     0.443233333333     0.912500000000     0          
T        Si     0.639233333333     0.443366666667     0.412700000000     0          
T        Si     0.333333333333     0.582233333333     0.500000000000     0          
T        Si     0.583033333333     0.333333333333     0.000000000000     0          
O        O      0.435133333333     0.436600000000     0.624200000000     0          
O        O      0.408333333333     0.370833333333     0.675300000000     0          
O        O      0.454133333333     0.447000000000     0.707000000000     0          
O        O      0.377066666667     0.420766666667     0.682700000000     0          
O        O      0.599800000000     0.532933333333     0.761800000000     0          
O        O      0.518733333333     0.481266666667     0.760400000000     0          
O        O      0.549700000000     0.557766666667     0.791300000000     0          
O        O      0.621533333333     0.576400000000     0.825600000000     0          
O        O      0.368766666667     0.631266666667     0.828800000000     0          
O        O      0.337066666667     0.562766666667     0.876500000000     0          
O        O      0.592266666667     0.517833333333     0.902800000000     0          
O        O      0.511200000000     0.488833333333     0.910800000000     0          
O        O      0.564433333333     0.551033333333     0.959800000000     0          
O        O      0.627700000000     0.588766666667     0.013900000000     0          
O        O      0.590033333333     0.513400000000     0.407300000000     0          
O        O      0.509700000000     0.490333333333     0.408100000000     0          
O        O      0.562733333333     0.550833333333     0.459500000000     0          
O        O      0.412266666667     0.372800000000     0.512300000000     0          
T        Si     0.418700000000     0.418666666667     0.672100000000     0          
T        Si     0.554900000000     0.529400000000     0.754800000000     0          
T        Si     0.334233333333     0.582200000000     0.830700000000     0          
T        Si     0.556766666667     0.530066666667     0.912500000000     0          
T        Si     0.556633333333     0.529200000000     0.412700000000     0          
T        Si     0.417766666667     0.417766666667     0.500000000000     0          
T        Si     0.333333333333     0.583033333333     0.000000000000     0          
O        O      0.665200000000     0.563400000000     0.375800000000     0          
O        O      0.370833333333     0.629166666667     0.324700000000     0          
O        O      0.340466666667     0.553000000000     0.293000000000     0          
O        O      0.622966666667     0.579233333333     0.317300000000     0          
O        O      0.400200000000     0.467066666667     0.238200000000     0          
O        O      0.370800000000     0.518733333333     0.239600000000     0          
O        O      0.658600000000     0.442233333333     0.208700000000     0          
O        O      0.378466666667     0.423600000000     0.174400000000     0          
O        O      0.404166666667     0.368733333333     0.171200000000     0          
O        O      0.440966666667     0.437233333333     0.123500000000     0          
O        O      0.407766666667     0.482166666667     0.097200000000     0          
O        O      0.355700000000     0.511166666667     0.089200000000     0          
O        O      0.346733333333     0.448966666667     0.040200000000     0          
O        O      0.372266666667     0.411233333333     0.986100000000     0          
O        O      0.409966666667     0.486600000000     0.592700000000     0          
O        O      0.352700000000     0.509666666667     0.591900000000     0          
O        O      0.345233333333     0.449166666667     0.540500000000     0          
O        O      0.372800000000     0.627200000000     0.487700000000     0          
T        Si     0.333366666667     0.581333333333     0.327900000000     0          
T        Si     0.358833333333     0.470600000000     0.245200000000     0          
T        Si     0.418700000000     0.417800000000     0.169300000000     0          
T        Si     0.360033333333     0.469933333333     0.087500000000     0          
T        Si     0.360766666667     0.470800000000     0.587300000000     0          
O        O      0.436600000000     0.435133333333     0.375800000000     0          
O        O      0.370833333333     0.408333333333     0.324700000000     0          
O        O      0.447000000000     0.454133333333     0.293000000000     0          
O        O      0.420766666667     0.377066666667     0.317300000000     0          
O        O      0.532933333333     0.599800000000     0.238200000000     0          
O        O      0.481266666667     0.518733333333     0.239600000000     0          
O        O      0.557766666667     0.549700000000     0.208700000000     0          
O        O      0.576400000000     0.621533333333     0.174400000000     0          
O        O      0.631266666667     0.368766666667     0.171200000000     0          
O        O      0.562766666667     0.337066666667     0.123500000000     0          
O        O      0.517833333333     0.592266666667     0.097200000000     0          
O        O      0.488833333333     0.511200000000     0.089200000000     0          
O        O      0.551033333333     0.564433333333     0.040200000000     0          
O        O      0.588766666667     0.627700000000     0.986100000000     0          
O        O      0.513400000000     0.590033333333     0.592700000000     0          
O        O      0.490333333333     0.509700000000     0.591900000000     0          
O        O      0.550833333333     0.562733333333     0.540500000000     0          
O        O      0.372800000000     0.412266666667     0.487700000000     0          
T        Si     0.418666666667     0.418700000000     0.327900000000     0          
T        Si     0.529400000000     0.554900000000     0.245200000000     0          
T        Si     0.582200000000     0.334233333333     0.169300000000     0          
T        Si     0.530066666667     0.556766666667     0.087500000000     0          
T        Si     0.529200000000     0.556633333333     0.587300000000     0          
O        O      0.564866666667     0.334800000000     0.375800000000     0          
O        O      0.591666666667     0.629166666667     0.324700000000     0          
O        O      0.545866666667     0.659533333333     0.293000000000     0          
O        O      0.622933333333     0.377033333333     0.317300000000     0          
O        O      0.400200000000     0.599800000000     0.238200000000     0          
O        O      0.481266666667     0.629200000000     0.239600000000     0          
O        O      0.450300000000     0.341400000000     0.208700000000     0          
O        O      0.378466666667     0.621533333333     0.174400000000     0          
O        O      0.631233333333     0.595833333333     0.171200000000     0          
O        O      0.662933333333     0.559033333333     0.123500000000     0          
O        O      0.407733333333     0.592233333333     0.097200000000     0          
O        O      0.488800000000     0.644300000000     0.089200000000     0          
O        O      0.435566666667     0.653266666667     0.040200000000     0          
O        O      0.372300000000     0.627733333333     0.986100000000     0          
O        O      0.409966666667     0.590033333333     0.592700000000     0          
O        O      0.490300000000     0.647300000000     0.591900000000     0          
O        O      0.437266666667     0.654766666667     0.540500000000     0          
O        O      0.587733333333     0.627200000000     0.487700000000     0          
T        Si     0.581300000000     0.666633333333     0.327900000000     0          
T        Si     0.445100000000     0.641166666667     0.245200000000     0          
T        Si     0.665766666667     0.581300000000     0.169300000000     0          
T        Si     0.443233333333     0.639966666667     0.087500000000     0          
T        Si     0.443366666667     0.639233333333     0.587300000000     0          
O        O      0.436600000000     0.334800000000     0.375800000000     0          
O        O      0.447000000000     0.659533333333     0.293000000000     0          
O        O      0.557766666667     0.341400000000     0.208700000000     0          
O        O      0.562766666667     0.559033333333     0.123500000000     0          
O        O      0.551033333333     0.653266666667     0.040200000000     0          
O        O      0.550833333333     0.654766666667     0.540500000000     0          
T        Si     0.418666666667     0.666633333333     0.327900000000     0          
T        Si     0.529400000000     0.641166666667     0.245200000000     0          
T        Si     0.582200000000     0.581300000000     0.169300000000     0          
T        Si     0.530066666667     0.639966666667     0.087500000000     0          
T        Si     0.529200000000     0.639233333333     0.587300000000     0          
T        Si     0.417766666667     0.333333333333     0.500000000000     0          
T        Si     0.583033333333     0.583033333333     0.000000000000     0          
O        O      0.665200000000     0.435133333333     0.375800000000     0          
O        O      0.340466666667     0.454133333333     0.293000000000     0          
O        O      0.658600000000     0.549700000000     0.208700000000     0          
O        O      0.440966666667     0.337066666667     0.123500000000     0          
O        O      0.346733333333     0.564433333333     0.040200000000     0          
O        O      0.345233333333     0.562733333333     0.540500000000     0          
T        Si     0.333366666667     0.418700000000     0.327900000000     0          
T        Si     0.358833333333     0.554900000000     0.245200000000     0          
T        Si     0.418700000000     0.334233333333     0.169300000000     0          
T        Si     0.360033333333     0.556766666667     0.087500000000     0          
T        Si     0.360766666667     0.556633333333     0.587300000000     0          
T        Si     0.333333333333     0.417766666667     0.500000000000     0          
T        Si     0.416966666667     0.333333333333     0.000000000000     0          
O        O      0.564866666667     0.563400000000     0.375800000000     0          
O        O      0.545866666667     0.553000000000     0.293000000000     0          
O        O      0.450300000000     0.442233333333     0.208700000000     0          
O        O      0.662933333333     0.437233333333     0.123500000000     0          
O        O      0.435566666667     0.448966666667     0.040200000000     0          
O        O      0.437266666667     0.449166666667     0.540500000000     0          
T        Si     0.581300000000     0.581333333333     0.327900000000     0          
T        Si     0.445100000000     0.470600000000     0.245200000000     0          
T        Si     0.665766666667     0.417800000000     0.169300000000     0          
T        Si     0.443233333333     0.469933333333     0.087500000000     0          
T        Si     0.443366666667     0.470800000000     0.587300000000     0          
T        Si     0.582233333333     0.582233333333     0.500000000000     0          
T        Si     0.333333333333     0.416966666667     0.000000000000     0          
O        O      0.334800000000     0.436600000000     0.624200000000     0          
O        O      0.659533333333     0.447000000000     0.707000000000     0          
O        O      0.341400000000     0.557766666667     0.791300000000     0          
O        O      0.559033333333     0.562766666667     0.876500000000     0          
O        O      0.653266666667     0.551033333333     0.959800000000     0          
O        O      0.654766666667     0.550833333333     0.459500000000     0          
T        Si     0.666633333333     0.418666666667     0.672100000000     0          
T        Si     0.641166666667     0.529400000000     0.754800000000     0          
T        Si     0.581300000000     0.582200000000     0.830700000000     0          
T        Si     0.639966666667     0.530066666667     0.912500000000     0          
T        Si     0.639233333333     0.529200000000     0.412700000000     0          
O        O      0.563400000000     0.564866666667     0.624200000000     0          
O        O      0.553000000000     0.545866666667     0.707000000000     0          
O        O      0.442233333333     0.450300000000     0.791300000000     0          
O        O      0.437233333333     0.662933333333     0.876500000000     0          
O        O      0.448966666667     0.435566666667     0.959800000000     0          
O        O      0.449166666667     0.437266666667     0.459500000000     0          
T        Si     0.581333333333     0.581300000000     0.672100000000     0          
T        Si     0.470600000000     0.445100000000     0.754800000000     0          
T        Si     0.417800000000     0.665766666667     0.830700000000     0          
T        Si     0.469933333333     0.443233333333     0.912500000000     0          
T        Si     0.470800000000     0.443366666667     0.412700000000     0          
O        O      0.435133333333     0.665200000000     0.624200000000     0          
O        O      0.454133333333     0.340466666667     0.707000000000     0          
O        O      0.549700000000     0.658600000000     0.791300000000     0          
O        O      0.337066666667     0.440966666667     0.876500000000     0          
O        O      0.564433333333     0.346733333333     0.959800000000     0          
O        O      0.562733333333     0.345233333333     0.459500000000     0          
T        Si     0.418700000000     0.333366666667     0.672100000000     0          
T        Si     0.554900000000     0.358833333333     0.754800000000     0          
T        Si     0.334233333333     0.418700000000     0.830700000000     0          
T        Si     0.556766666667     0.360033333333     0.912500000000     0          
T        Si     0.556633333333     0.360766666667     0.412700000000     0          
O        O      0.563400000000     0.998533333333     0.624200000000     0          
O        O      0.629166666667     0.704166666667     0.675300000000     0          
O        O      0.553000000000     0.673800000000     0.707000000000     0          
O        O      0.579233333333     0.956300000000     0.682700000000     0          
O        O      0.467066666667     0.733533333333     0.761800000000     0          
O        O      0.518733333333     0.704133333333     0.760400000000     0          
O        O      0.442233333333     0.991933333333     0.791300000000     0          
O        O      0.423600000000     0.711800000000     0.825600000000     0          
O        O      0.368733333333     0.737500000000     0.828800000000     0          
O        O      0.437233333333     0.774300000000     0.876500000000     0          
O        O      0.482166666667     0.741100000000     0.902800000000     0          
O        O      0.511166666667     0.689033333333     0.910800000000     0          
O        O      0.448966666667     0.680066666667     0.959800000000     0          
O        O      0.411233333333     0.705600000000     0.013900000000     0          
O        O      0.486600000000     0.743300000000     0.407300000000     0          
O        O      0.509666666667     0.686033333333     0.408100000000     0          
O        O      0.449166666667     0.678566666667     0.459500000000     0          
O        O      0.627200000000     0.706133333333     0.512300000000     0          
T        Si     0.581333333333     0.666700000000     0.672100000000     0          
T        Si     0.470600000000     0.692166666667     0.754800000000     0          
T        Si     0.417800000000     0.752033333333     0.830700000000     0          
T        Si     0.469933333333     0.693366666667     0.912500000000     0          
T        Si     0.470800000000     0.694100000000     0.412700000000     0          
T        Si     0.582233333333     0.666666666667     0.500000000000     0          
T        Si     0.416966666667     0.750300000000     0.000000000000     0          
O        O      0.334800000000     0.898200000000     0.624200000000     0          
O        O      0.629166666667     0.925000000000     0.675300000000     0          
O        O      0.659533333333     0.879200000000     0.707000000000     0          
O        O      0.377033333333     0.956266666667     0.682700000000     0          
O        O      0.599800000000     0.733533333333     0.761800000000     0          
O        O      0.629200000000     0.814600000000     0.760400000000     0          
O        O      0.341400000000     0.783633333333     0.791300000000     0          
O        O      0.621533333333     0.711800000000     0.825600000000     0          
O        O      0.595833333333     0.964566666667     0.828800000000     0          
O        O      0.559033333333     0.996266666667     0.876500000000     0          
O        O      0.592233333333     0.741066666667     0.902800000000     0          
O        O      0.644300000000     0.822133333333     0.910800000000     0          
O        O      0.653266666667     0.768900000000     0.959800000000     0          
O        O      0.627733333333     0.705633333333     0.013900000000     0          
O        O      0.590033333333     0.743300000000     0.407300000000     0          
O        O      0.647300000000     0.823633333333     0.408100000000     0          
O        O      0.654766666667     0.770600000000     0.459500000000     0          
O        O      0.627200000000     0.921066666667     0.512300000000     0          
T        Si     0.666633333333     0.914633333333     0.672100000000     0          
T        Si     0.641166666667     0.778433333333     0.754800000000     0          
T        Si     0.581300000000     0.999100000000     0.830700000000     0          
T        Si     0.639966666667     0.776566666667     0.912500000000     0          
T        Si     0.639233333333     0.776700000000     0.412700000000     0          
T        Si     0.333333333333     0.915566666667     0.500000000000     0          
T        Si     0.583033333333     0.666666666667     0.000000000000     0          
O        O      0.435133333333     0.769933333333     0.624200000000     0          
O        O      0.408333333333     0.704166666667     0.675300000000     0          
O        O      0.454133333333     0.780333333333     0.707000000000     0          
O        O      0.377066666667     0.754100000000     0.682700000000     0          
O        O      0.599800000000     0.866266666667     0.761800000000     0          
O        O      0.518733333333     0.814600000000     0.760400000000     0          
O        O      0.549700000000     0.891100000000     0.791300000000     0          
O        O      0.621533333333     0.909733333333     0.825600000000     0          
O        O      0.368766666667     0.964600000000     0.828800000000     0          
O        O      0.337066666667     0.896100000000     0.876500000000     0          
O        O      0.592266666667     0.851166666667     0.902800000000     0          
O        O      0.511200000000     0.822166666667     0.910800000000     0          
O        O      0.564433333333     0.884366666667     0.959800000000     0          
O        O      0.627700000000     0.922100000000     0.013900000000     0          
O        O      0.590033333333     0.846733333333     0.407300000000     0          
O        O      0.509700000000     0.823666666667     0.408100000000     0          
O        O      0.562733333333     0.884166666667     0.459500000000     0          
O        O      0.412266666667     0.706133333333     0.512300000000     0          
T        Si     0.418700000000     0.752000000000     0.672100000000     0          
T        Si     0.554900000000     0.862733333333     0.754800000000     0          
T        Si     0.334233333333     0.915533333333     0.830700000000     0          
T        Si     0.556766666667     0.863400000000     0.912500000000     0          
T        Si     0.556633333333     0.862533333333     0.412700000000     0          
T        Si     0.417766666667     0.751100000000     0.500000000000     0          
T        Si     0.333333333333     0.916366666667     0.000000000000     0          
O        O      0.665200000000     0.896733333333     0.375800000000     0          
O        O      0.370833333333     0.962500000000     0.324700000000     0          
O        O      0.340466666667     0.886333333333     0.293000000000     0          
O        O      0.622966666667     0.912566666667     0.317300000000     0          
O        O      0.400200000000     0.800400000000     0.238200000000     0          
O        O      0.370800000000     0.852066666667     0.239600000000     0          
O        O      0.658600000000     0.775566666667     0.208700000000     0          
O        O      0.378466666667     0.756933333333     0.174400000000     0          
O        O      0.404166666667     0.702066666667     0.171200000000     0          
O        O      0.440966666667     0.770566666667     0.123500000000     0          
O        O      0.407766666667     0.815500000000     0.097200000000     0          
O        O      0.355700000000     0.844500000000     0.089200000000     0          
O        O      0.346733333333     0.782300000000     0.040200000000     0          
O        O      0.372266666667     0.744566666667     0.986100000000     0          
O        O      0.409966666667     0.819933333333     0.592700000000     0          
O        O      0.352700000000     0.843000000000     0.591900000000     0          
O        O      0.345233333333     0.782500000000     0.540500000000     0          
O        O      0.372800000000     0.960533333333     0.487700000000     0          
T        Si     0.333366666667     0.914666666667     0.327900000000     0          
T        Si     0.358833333333     0.803933333333     0.245200000000     0          
T        Si     0.418700000000     0.751133333333     0.169300000000     0          
T        Si     0.360033333333     0.803266666667     0.087500000000     0          
T        Si     0.360766666667     0.804133333333     0.587300000000     0          
O        O      0.436600000000     0.768466666667     0.375800000000     0          
O        O      0.370833333333     0.741666666667     0.324700000000     0          
O        O      0.447000000000     0.787466666667     0.293000000000     0          
O        O      0.420766666667     0.710400000000     0.317300000000     0          
O        O      0.532933333333     0.933133333333     0.238200000000     0          
O        O      0.481266666667     0.852066666667     0.239600000000     0          
O        O      0.557766666667     0.883033333333     0.208700000000     0          
O        O      0.576400000000     0.954866666667     0.174400000000     0          
O        O      0.631266666667     0.702100000000     0.171200000000     0          
O        O      0.562766666667     0.670400000000     0.123500000000     0          
O        O      0.517833333333     0.925600000000     0.097200000000     0          
O        O      0.488833333333     0.844533333333     0.089200000000     0          
O        O      0.551033333333     0.897766666667     0.040200000000     0          
O        O      0.588766666667     0.961033333333     0.986100000000     0          
O        O      0.513400000000     0.923366666667     0.592700000000     0          
O        O      0.490333333333     0.843033333333     0.591900000000     0          
O        O      0.550833333333     0.896066666667     0.540500000000     0          
O        O      0.372800000000     0.745600000000     0.487700000000     0          
T        Si     0.418666666667     0.752033333333     0.327900000000     0          
T        Si     0.529400000000     0.888233333333     0.245200000000     0          
T        Si     0.582200000000     0.667566666667     0.169300000000     0          
T        Si     0.530066666667     0.890100000000     0.087500000000     0          
T        Si     0.529200000000     0.889966666667     0.587300000000     0          
O        O      0.564866666667     0.668133333333     0.375800000000     0          
O        O      0.591666666667     0.962500000000     0.324700000000     0          
O        O      0.545866666667     0.992866666667     0.293000000000     0          
O        O      0.622933333333     0.710366666667     0.317300000000     0          
O        O      0.400200000000     0.933133333333     0.238200000000     0          
O        O      0.481266666667     0.962533333333     0.239600000000     0          
O        O      0.450300000000     0.674733333333     0.208700000000     0          
O        O      0.378466666667     0.954866666667     0.174400000000     0          
O        O      0.631233333333     0.929166666667     0.171200000000     0          
O        O      0.662933333333     0.892366666667     0.123500000000     0          
O        O      0.407733333333     0.925566666667     0.097200000000     0          
O        O      0.488800000000     0.977633333333     0.089200000000     0          
O        O      0.435566666667     0.986600000000     0.040200000000     0          
O        O      0.372300000000     0.961066666667     0.986100000000     0          
O        O      0.409966666667     0.923366666667     0.592700000000     0          
O        O      0.490300000000     0.980633333333     0.591900000000     0          
O        O      0.437266666667     0.988100000000     0.540500000000     0          
O        O      0.587733333333     0.960533333333     0.487700000000     0          
T        Si     0.581300000000     0.999966666667     0.327900000000     0          
T        Si     0.445100000000     0.974500000000     0.245200000000     0          
T        Si     0.665766666667     0.914633333333     0.169300000000     0          
T        Si     0.443233333333     0.973300000000     0.087500000000     0          
T        Si     0.443366666667     0.972566666667     0.587300000000     0          
O        O      0.436600000000     0.668133333333     0.375800000000     0          
O        O      0.447000000000     0.992866666667     0.293000000000     0          
O        O      0.557766666667     0.674733333333     0.208700000000     0          
O        O      0.562766666667     0.892366666667     0.123500000000     0          
O        O      0.551033333333     0.986600000000     0.040200000000     0          
O        O      0.550833333333     0.988100000000     0.540500000000     0          
T        Si     0.418666666667     0.999966666667     0.327900000000     0          
T        Si     0.529400000000     0.974500000000     0.245200000000     0          
T        Si     0.582200000000     0.914633333333     0.169300000000     0          
T        Si     0.530066666667     0.973300000000     0.087500000000     0          
T        Si     0.529200000000     0.972566666667     0.587300000000     0          
T        Si     0.417766666667     0.666666666667     0.500000000000     0          
T        Si     0.583033333333     0.916366666667     0.000000000000     0          
O        O      0.665200000000     0.768466666667     0.375800000000     0          
O        O      0.340466666667     0.787466666667     0.293000000000     0          
O        O      0.658600000000     0.883033333333     0.208700000000     0          
O        O      0.440966666667     0.670400000000     0.123500000000     0          
O        O      0.346733333333     0.897766666667     0.040200000000     0          
O        O      0.345233333333     0.896066666667     0.540500000000     0          
T        Si     0.333366666667     0.752033333333     0.327900000000     0          
T        Si     0.358833333333     0.888233333333     0.245200000000     0          
T        Si     0.418700000000     0.667566666667     0.169300000000     0          
T        Si     0.360033333333     0.890100000000     0.087500000000     0          
T        Si     0.360766666667     0.889966666667     0.587300000000     0          
T        Si     0.333333333333     0.751100000000     0.500000000000     0          
T        Si     0.416966666667     0.666666666667     0.000000000000     0          
O        O      0.564866666667     0.896733333333     0.375800000000     0          
O        O      0.545866666667     0.886333333333     0.293000000000     0          
O        O      0.450300000000     0.775566666667     0.208700000000     0          
O        O      0.662933333333     0.770566666667     0.123500000000     0          
O        O      0.435566666667     0.782300000000     0.040200000000     0          
O        O      0.437266666667     0.782500000000     0.540500000000     0          
T        Si     0.581300000000     0.914666666667     0.327900000000     0          
T        Si     0.445100000000     0.803933333333     0.245200000000     0          
T        Si     0.665766666667     0.751133333333     0.169300000000     0          
T        Si     0.443233333333     0.803266666667     0.087500000000     0          
T        Si     0.443366666667     0.804133333333     0.587300000000     0          
T        Si     0.582233333333     0.915566666667     0.500000000000     0          
T        Si     0.333333333333     0.750300000000     0.000000000000     0          
O        O      0.334800000000     0.769933333333     0.624200000000     0          
O        O      0.659533333333     0.780333333333     0.707000000000     0          
O        O      0.341400000000     0.891100000000     0.791300000000     0          
O        O      0.559033333333     0.896100000000     0.876500000000     0          
O        O      0.653266666667     0.884366666667     0.959800000000     0          
O        O      0.654766666667     0.884166666667     0.459500000000     0          
T        Si     0.666633333333     0.752000000000     0.672100000000     0          
T        Si     0.641166666667     0.862733333333     0.754800000000     0          
T        Si     0.581300000000     0.915533333333     0.830700000000     0          
T        Si     0.639966666667     0.863400000000     0.912500000000     0          
T        Si     0.639233333333     0.862533333333     0.412700000000     0          
O        O      0.563400000000     0.898200000000     0.624200000000     0          
O        O      0.553000000000     0.879200000000     0.707000000000     0          
O        O      0.442233333333     0.783633333333     0.791300000000     0          
O        O      0.437233333333     0.996266666667     0.876500000000     0          
O        O      0.448966666667     0.768900000000     0.959800000000     0          
O        O      0.449166666667     0.770600000000     0.459500000000     0          
T        Si     0.581333333333     0.914633333333     0.672100000000     0          
T        Si     0.470600000000     0.778433333333     0.754800000000     0          
T        Si     0.417800000000     0.999100000000     0.830700000000     0          
T        Si     0.469933333333     0.776566666667     0.912500000000     0          
T        Si     0.470800000000     0.776700000000     0.412700000000     0          
O        O      0.435133333333     0.998533333333     0.624200000000     0          
O        O      0.454133333333     0.673800000000     0.707000000000     0          
O        O      0.549700000000     0.991933333333     0.791300000000     0          
O        O      0.337066666667     0.774300000000     0.876500000000     0          
O        O      0.564433333333     0.680066666667     0.959800000000     0          
O        O      0.562733333333     0.678566666667     0.459500000000     0          
T        Si     0.418700000000     0.666700000000     0.672100000000     0          
T        Si     0.554900000000     0.692166666667     0.754800000000     0          
T        Si     0.334233333333     0.752033333333     0.830700000000     0          
T        Si     0.556766666667     0.693366666667     0.912500000000     0          
T        Si     0.556633333333     0.694100000000     0.412700000000     0          
O        O      0.896733333333     0.331866666667     0.624200000000     0          
O        O      0.962500000000     0.037500000000     0.675300000000     0          
O        O      0.886333333333     0.007133333333     0.707000000000     0          
O        O      0.912566666667     0.289633333333     0.682700000000     0          
O        O      0.800400000000     0.066866666667     0.761800000000     0          
O        O      0.852066666667     0.037466666667     0.760400000000     0          
O        O      0.775566666667     0.325266666667     0.791300000000     0          
O        O      0.756933333333     0.045133333333     0.825600000000     0          
O        O      0.702066666667     0.070833333333     0.828800000000     0          
O        O      0.770566666667     0.107633333333     0.876500000000     0          
O        O      0.815500000000     0.074433333333     0.902800000000     0          
O        O      0.844500000000     0.022366666667     0.910800000000     0          
O        O      0.782300000000     0.013400000000     0.959800000000     0          
O        O      0.744566666667     0.038933333333     0.013900000000     0          
O        O      0.819933333333     0.076633333333     0.407300000000     0          
O        O      0.843000000000     0.019366666667     0.408100000000     0          
O        O      0.782500000000     0.011900000000     0.459500000000     0          
O        O      0.960533333333     0.039466666667     0.512300000000     0          
T        Si     0.914666666667     0.000033333333     0.672100000000     0          
T        Si     0.803933333333     0.025500000000     0.754800000000     0          
T        Si     0.751133333333     0.085366666667     0.830700000000     0          
T        Si     0.803266666667     0.026700000000     0.912500000000     0          
T        Si     0.804133333333     0.027433333333     0.412700000000     0          
T        Si     0.915566666667     0.000000000000     0.500000000000     0          
T        Si     0.750300000000     0.083633333333     0.000000000000     0          
O        O      0.668133333333     0.231533333333     0.624200000000     0          
O        O      0.962500000000     0.258333333333     0.675300000000     0          
O        O      0.992866666667     0.212533333333     0.707000000000     0          
O        O      0.710366666667     0.289600000000     0.682700000000     0          
O        O      0.933133333333     0.066866666667     0.761800000000     0          
O        O      0.962533333333     0.147933333333     0.760400000000     0          
O        O      0.674733333333     0.116966666667     0.791300000000     0          
O        O      0.954866666667     0.045133333333     0.825600000000     0          
O        O      0.929166666667     0.297900000000     0.828800000000     0          
O        O      0.892366666667     0.329600000000     0.876500000000     0          
O        O      0.925566666667     0.074400000000     0.902800000000     0          
O        O      0.977633333333     0.155466666667     0.910800000000     0          
O        O      0.986600000000     0.102233333333     0.959800000000     0          
O        O      0.961066666667     0.038966666667     0.013900000000     0          
O        O      0.923366666667     0.076633333333     0.407300000000     0          
O        O      0.980633333333     0.156966666667     0.408100000000     0          
O        O      0.988100000000     0.103933333333     0.459500000000     0          
O        O      0.960533333333     0.254400000000     0.512300000000     0          
T        Si     0.999966666667     0.247966666667     0.672100000000     0          
T        Si     0.974500000000     0.111766666667     0.754800000000     0          
T        Si     0.914633333333     0.332433333333     0.830700000000     0          
T        Si     0.973300000000     0.109900000000     0.912500000000     0          
T        Si     0.972566666667     0.110033333333     0.412700000000     0          
T        Si     0.666666666667     0.248900000000     0.500000000000     0          
T        Si     0.916366666667     0.000000000000     0.000000000000     0          
O        O      0.768466666667     0.103266666667     0.624200000000     0          
O        O      0.741666666667     0.037500000000     0.675300000000     0          
O        O      0.787466666667     0.113666666667     0.707000000000     0          
O        O      0.710400000000     0.087433333333     0.682700000000     0          
O        O      0.933133333333     0.199600000000     0.761800000000     0          
O        O      0.852066666667     0.147933333333     0.760400000000     0          
O        O      0.883033333333     0.224433333333     0.791300000000     0          
O        O      0.954866666667     0.243066666667     0.825600000000     0          
O        O      0.702100000000     0.297933333333     0.828800000000     0          
O        O      0.670400000000     0.229433333333     0.876500000000     0          
O        O      0.925600000000     0.184500000000     0.902800000000     0          
O        O      0.844533333333     0.155500000000     0.910800000000     0          
O        O      0.897766666667     0.217700000000     0.959800000000     0          
O        O      0.961033333333     0.255433333333     0.013900000000     0          
O        O      0.923366666667     0.180066666667     0.407300000000     0          
O        O      0.843033333333     0.157000000000     0.408100000000     0          
O        O      0.896066666667     0.217500000000     0.459500000000     0          
O        O      0.745600000000     0.039466666667     0.512300000000     0          
T        Si     0.752033333333     0.085333333333     0.672100000000     0          
T        Si     0.888233333333     0.196066666667     0.754800000000     0          
T        Si     0.667566666667     0.248866666667     0.830700000000     0          
T        Si     0.890100000000     0.196733333333     0.912500000000     0          
T        Si     0.889966666667     0.195866666667     0.412700000000     0          
T        Si     0.751100000000     0.084433333333     0.500000000000     0          
T        Si     0.666666666667     0.249700000000     0.000000000000     0          
O        O      0.998533333333     0.230066666667     0.375800000000     0          
O        O      0.704166666667     0.295833333333     0.324700000000     0          
O        O      0.673800000000     0.219666666667     0.293000000000     0          
O        O      0.956300000000     0.245900000000     0.317300000000     0          
O        O      0.733533333333     0.133733333333     0.238200000000     0          
O        O      0.704133333333     0.185400000000     0.239600000000     0          
O        O      0.991933333333     0.108900000000     0.208700000000     0          
O        O      0.711800000000     0.090266666667     0.174400000000     0          
O        O      0.737500000000     0.035400000000     0.171200000000     0          
O        O      0.774300000000     0.103900000000     0.123500000000     0          
O        O      0.741100000000     0.148833333333     0.097200000000     0          
O        O      0.689033333333     0.177833333333     0.089200000000     0          
O        O      0.680066666667     0.115633333333     0.040200000000     0          
O        O      0.705600000000     0.077900000000     0.986100000000     0          
O        O      0.743300000000     0.153266666667     0.592700000000     0          
O        O      0.686033333333     0.176333333333     0.591900000000     0          
O        O      0.678566666667     0.115833333333     0.540500000000     0          
O        O      0.706133333333     0.293866666667     0.487700000000     0          
T        Si     0.666700000000     0.248000000000     0.327900000000     0          
T        Si     0.692166666667     0.137266666667     0.245200000000     0          
T        Si     0.752033333333     0.084466666667     0.169300000000     0          
T        Si     0.693366666667     0.136600000000     0.087500000000     0          
T        Si     0.694100000000     0.137466666667     0.587300000000     0          
O        O      0.769933333333     0.101800000000     0.375800000000     0          
O        O      0.704166666667     0.075000000000     0.324700000000     0          
O        O      0.780333333333     0.120800000000     0.293000000000     0          
O        O      0.754100000000     0.043733333333     0.317300000000     0          
O        O      0.866266666667     0.266466666667     0.238200000000     0          
O        O      0.814600000000     0.185400000000     0.239600000000     0          
O        O      0.891100000000     0.216366666667     0.208700000000     0          
O        O      0.909733333333     0.288200000000     0.174400000000     0          
O        O      0.964600000000     0.035433333333     0.171200000000     0          
O        O      0.896100000000     0.003733333333     0.123500000000     0          
O        O      0.851166666667     0.258933333333     0.097200000000     0          
O        O      0.822166666667     0.177866666667     0.089200000000     0          
O        O      0.884366666667     0.231100000000     0.040200000000     0          
O        O      0.922100000000     0.294366666667     0.986100000000     0          
O        O      0.846733333333     0.256700000000     0.592700000000     0          
O        O      0.823666666667     0.176366666667     0.591900000000     0          
O        O      0.884166666667     0.229400000000     0.540500000000     0          
O        O      0.706133333333     0.078933333333     0.487700000000     0          
T        Si     0.752000000000     0.085366666667     0.327900000000     0          
T        Si     0.862733333333     0.221566666667     0.245200000000     0          
T        Si     0.915533333333     0.000900000000     0.169300000000     0          
T        Si     0.863400000000     0.223433333333     0.087500000000     0          
T        Si     0.862533333333     0.223300000000     0.587300000000     0          
O        O      0.898200000000     0.001466666667     0.375800000000     0          
O        O      0.925000000000     0.295833333333     0.324700000000     0          
O        O      0.879200000000     0.326200000000     0.293000000000     0          
O        O      0.956266666667     0.043700000000     0.317300000000     0          
O        O      0.733533333333     0.266466666667     0.238200000000     0          
O        O      0.814600000000     0.295866666667     0.239600000000     0          
O        O      0.783633333333     0.008066666667     0.208700000000     0          
O        O      0.711800000000     0.288200000000     0.174400000000     0          
O        O      0.964566666667     0.262500000000     0.171200000000     0          
O        O      0.996266666667     0.225700000000     0.123500000000     0          
O        O      0.741066666667     0.258900000000     0.097200000000     0          
O        O      0.822133333333     0.310966666667     0.089200000000     0          
O        O      0.768900000000     0.319933333333     0.040200000000     0          
O        O      0.705633333333     0.294400000000     0.986100000000     0          
O        O      0.743300000000     0.256700000000     0.592700000000     0          
O        O      0.823633333333     0.313966666667     0.591900000000     0          
O        O      0.770600000000     0.321433333333     0.540500000000     0          
O        O      0.921066666667     0.293866666667     0.487700000000     0          
T        Si     0.914633333333     0.333300000000     0.327900000000     0          
T        Si     0.778433333333     0.307833333333     0.245200000000     0          
T        Si     0.999100000000     0.247966666667     0.169300000000     0          
T        Si     0.776566666667     0.306633333333     0.087500000000     0          
T        Si     0.776700000000     0.305900000000     0.587300000000     0          
O        O      0.769933333333     0.001466666667     0.375800000000     0          
O        O      0.780333333333     0.326200000000     0.293000000000     0          
O        O      0.891100000000     0.008066666667     0.208700000000     0          
O        O      0.896100000000     0.225700000000     0.123500000000     0          
O        O      0.884366666667     0.319933333333     0.040200000000     0          
O        O      0.884166666667     0.321433333333     0.540500000000     0          
T        Si     0.752000000000     0.333300000000     0.327900000000     0          
T        Si     0.862733333333     0.307833333333     0.245200000000     0          
T        Si     0.915533333333     0.247966666667     0.169300000000     0          
T        Si     0.863400000000     0.306633333333     0.087500000000     0          
T        Si     0.862533333333     0.305900000000     0.587300000000     0          
T        Si     0.751100000000     0.000000000000     0.500000000000     0          
T        Si     0.916366666667     0.249700000000     0.000000000000     0          
O        O      0.998533333333     0.101800000000     0.375800000000     0          
O        O      0.673800000000     0.120800000000     0.293000000000     0          
O        O      0.991933333333     0.216366666667     0.208700000000     0          
O        O      0.774300000000     0.003733333333     0.123500000000     0          
O        O      0.680066666667     0.231100000000     0.040200000000     0          
O        O      0.678566666667     0.229400000000     0.540500000000     0          
T        Si     0.666700000000     0.085366666667     0.327900000000     0          
T        Si     0.692166666667     0.221566666667     0.245200000000     0          
T        Si     0.752033333333     0.000900000000     0.169300000000     0          
T        Si     0.693366666667     0.223433333333     0.087500000000     0          
T        Si     0.694100000000     0.223300000000     0.587300000000     0          
T        Si     0.666666666667     0.084433333333     0.500000000000     0          
T        Si     0.750300000000     0.000000000000     0.000000000000     0          
O        O      0.898200000000     0.230066666667     0.375800000000     0          
O        O      0.879200000000     0.219666666667     0.293000000000     0          
O        O      0.783633333333     0.108900000000     0.208700000000     0          
O        O      0.996266666667     0.103900000000     0.123500000000     0          
O        O      0.768900000000     0.115633333333     0.040200000000     0          
O        O      0.770600000000     0.115833333333     0.540500000000     0          
T        Si     0.914633333333     0.248000000000     0.327900000000     0          
T        Si     0.778433333333     0.137266666667     0.245200000000     0          
T        Si     0.999100000000     0.084466666667     0.169300000000     0          
T        Si     0.776566666667     0.136600000000     0.087500000000     0          
T        Si     0.776700000000     0.137466666667     0.587300000000     0          
T        Si     0.915566666667     0.248900000000     0.500000000000     0          
T        Si     0.666666666667     0.083633333333     0.000000000000     0          
O        O      0.668133333333     0.103266666667     0.624200000000     0          
O        O      0.992866666667     0.113666666667     0.707000000000     0          
O        O      0.674733333333     0.224433333333     0.791300000000     0          
O        O      0.892366666667     0.229433333333     0.876500000000     0          
O        O      0.986600000000     0.217700000000     0.959800000000     0          
O        O      0.988100000000     0.217500000000     0.459500000000     0          
T        Si     0.999966666667     0.085333333333     0.672100000000     0          
T        Si     0.974500000000     0.196066666667     0.754800000000     0          
T        Si     0.914633333333     0.248866666667     0.830700000000     0          
T        Si     0.973300000000     0.196733333333     0.912500000000     0          
T        Si     0.972566666667     0.195866666667     0.412700000000     0          
O        O      0.896733333333     0.231533333333     0.624200000000     0          
O        O      0.886333333333     0.212533333333     0.707000000000     0          
O        O      0.775566666667     0.116966666667     0.791300000000     0          
O        O      0.770566666667     0.329600000000     0.876500000000     0          
O        O      0.782300000000     0.102233333333     0.959800000000     0          
O        O      0.782500000000     0.103933333333     0.459500000000     0          
T        Si     0.914666666667     0.247966666667     0.672100000000     0          
T        Si     0.803933333333     0.111766666667     0.754800000000     0          
T        Si     0.751133333333     0.332433333333     0.830700000000     0          
T        Si     0.803266666667     0.109900000000     0.912500000000     0          
T        Si     0.804133333333     0.110033333333     0.412700000000     0          
O        O      0.768466666667     0.331866666667     0.624200000000     0          
O        O      0.787466666667     0.007133333333     0.707000000000     0          
O        O      0.883033333333     0.325266666667     0.791300000000     0          
O        O      0.670400000000     0.107633333333     0.876500000000     0          
O        O      0.897766666667     0.013400000000     0.959800000000     0          
O        O      0.896066666667     0.011900000000     0.459500000000     0          
T        Si     0.752033333333     0.000033333333     0.672100000000     0          
T        Si     0.888233333333     0.025500000000     0.754800000000     0          
T        Si     0.667566666667     0.085366666667     0.830700000000     0          
T        Si     0.890100000000     0.026700000000     0.912500000000     0          
T        Si     0.889966666667     0.027433333333     0.412700000000     0          
O        O      0.896733333333     0.665200000000     0.624200000000     0          
O        O      0.962500000000     0.370833333333     0.675300000000     0          
O        O      0.886333333333     0.340466666667     0.707000000000     0          
O        O      0.912566666667     0.622966666667     0.682700000000     0          
O        O      0.800400000000     0.400200000000     0.761800000000     0          
O        O      0.852066666667     0.370800000000     0.760400000000     0          
O        O      0.775566666667     0.658600000000     0.791300000000     0          
O        O      0.756933333333     0.378466666667     0.825600000000     0          
O        O      0.702066666667     0.404166666667     0.828800000000     0          
O        O      0.770566666667     0.440966666667     0.876500000000     0          
O        O      0.815500000000     0.407766666667     0.902800000000     0          
O        O      0.844500000000     0.355700000000     0.910800000000     0          
O        O      0.782300000000     0.346733333333     0.959800000000     0          
O        O      0.744566666667     0.372266666667     0.013900000000     0          
O        O      0.819933333333     0.409966666667     0.407300000000     0          
O        O      0.843000000000     0.352700000000     0.408100000000     0          
O        O      0.782500000000     0.345233333333     0.459500000000     0          
O        O      0.960533333333     0.372800000000     0.512300000000     0          
T        Si     0.914666666667     0.333366666667     0.672100000000     0          
T        Si     0.803933333333     0.358833333333     0.754800000000     0          
T        Si     0.751133333333     0.418700000000     0.830700000000     0          
T        Si     0.803266666667     0.360033333333     0.912500000000     0          
T        Si     0.804133333333     0.360766666667     0.412700000000     0          
T        Si     0.915566666667     0.333333333333     0.500000000000     0          
T        Si     0.750300000000     0.416966666667     0.000000000000     0          
O        O      0.668133333333     0.564866666667     0.624200000000     0          
O        O      0.962500000000     0.591666666667     0.675300000000     0          
O        O      0.992866666667     0.545866666667     0.707000000000     0          
O        O      0.710366666667     0.622933333333     0.682700000000     0          
O        O      0.933133333333     0.400200000000     0.761800000000     0          
O        O      0.962533333333     0.481266666667     0.760400000000     0          
O        O      0.674733333333     0.450300000000     0.791300000000     0          
O        O      0.954866666667     0.378466666667     0.825600000000     0          
O        O      0.929166666667     0.631233333333     0.828800000000     0          
O        O      0.892366666667     0.662933333333     0.876500000000     0          
O        O      0.925566666667     0.407733333333     0.902800000000     0          
O        O      0.977633333333     0.488800000000     0.910800000000     0          
O        O      0.986600000000     0.435566666667     0.959800000000     0          
O        O      0.961066666667     0.372300000000     0.013900000000     0          
O        O      0.923366666667     0.409966666667     0.407300000000     0          
O        O      0.980633333333     0.490300000000     0.408100000000     0          
O        O      0.988100000000     0.437266666667     0.459500000000     0          
O        O      0.960533333333     0.587733333333     0.512300000000     0          
T        Si     0.999966666667     0.581300000000     0.672100000000     0          
T        Si     0.974500000000     0.445100000000     0.754800000000     0          
T        Si     0.914633333333     0.665766666667     0.830700000000     0          
T        Si     0.973300000000     0.443233333333     0.912500000000     0          
T        Si     0.972566666667     0.443366666667     0.412700000000     0          
T        Si     0.666666666667     0.582233333333     0.500000000000     0          
T        Si     0.916366666667     0.333333333333     0.000000000000     0          
O        O      0.768466666667     0.436600000000     0.624200000000     0          
O        O      0.741666666667     0.370833333333     0.675300000000     0          
O        O      0.787466666667     0.447000000000     0.707000000000     0          
O        O      0.710400000000     0.420766666667     0.682700000000     0          
O        O      0.933133333333     0.532933333333     0.761800000000     0          
O        O      0.852066666667     0.481266666667     0.760400000000     0          
O        O      0.883033333333     0.557766666667     0.791300000000     0          
O        O      0.954866666667     0.576400000000     0.825600000000     0          
O        O      0.702100000000     0.631266666667     0.828800000000     0          
O        O      0.670400000000     0.562766666667     0.876500000000     0          
O        O      0.925600000000     0.517833333333     0.902800000000     0          
O        O      0.844533333333     0.488833333333     0.910800000000     0          
O        O      0.897766666667     0.551033333333     0.959800000000     0          
O        O      0.961033333333     0.588766666667     0.013900000000     0          
O        O      0.923366666667     0.513400000000     0.407300000000     0          
O        O      0.843033333333     0.490333333333     0.408100000000     0          
O        O      0.896066666667     0.550833333333     0.459500000000     0          
O        O      0.745600000000     0.372800000000     0.512300000000     0          
T        Si     0.752033333333     0.418666666667     0.672100000000     0          
T        Si     0.888233333333     0.529400000000     0.754800000000     0          
T        Si     0.667566666667     0.582200000000     0.830700000000     0          
T        Si     0.890100000000     0.530066666667     0.912500000000     0          
T        Si     0.889966666667     0.529200000000     0.412700000000     0          
T        Si     0.751100000000     0.417766666667     0.500000000000     0          
T        Si     0.666666666667     0.583033333333     0.000000000000     0          
O        O      0.998533333333     0.563400000000     0.375800000000     0          
O        O      0.704166666667     0.629166666667     0.324700000000     0          
O        O      0.673800000000     0.553000000000     0.293000000000     0          
O        O      0.956300000000     0.579233333333     0.317300000000     0          
O        O      0.733533333333     0.467066666667     0.238200000000     0          
O        O      0.704133333333     0.518733333333     0.239600000000     0          
O        O      0.991933333333     0.442233333333     0.208700000000     0          
O        O      0.711800000000     0.423600000000     0.174400000000     0          
O        O      0.737500000000     0.368733333333     0.171200000000     0          
O        O      0.774300000000     0.437233333333     0.123500000000     0          
O        O      0.741100000000     0.482166666667     0.097200000000     0          
O        O      0.689033333333     0.511166666667     0.089200000000     0          
O        O      0.680066666667     0.448966666667     0.040200000000     0          
O        O      0.705600000000     0.411233333333     0.986100000000     0          
O        O      0.743300000000     0.486600000000     0.592700000000     0          
O        O      0.686033333333     0.509666666667     0.591900000000     0          
O        O      0.678566666667     0.449166666667     0.540500000000     0          
O        O      0.706133333333     0.627200000000     0.487700000000     0          
T        Si     0.666700000000     0.581333333333     0.327900000000     0          
T        Si     0.692166666667     0.470600000000     0.245200000000     0          
T        Si     0.752033333333     0.417800000000     0.169300000000     0          
T        Si     0.693366666667     0.469933333333     0.087500000000     0          
T        Si     0.694100000000     0.470800000000     0.587300000000     0          
O        O      0.769933333333     0.435133333333     0.375800000000     0          
O        O      0.704166666667     0.408333333333     0.324700000000     0          
O        O      0.780333333333     0.454133333333     0.293000000000     0          
O        O      0.754100000000     0.377066666667     0.317300000000     0          
O        O      0.866266666667     0.599800000000     0.238200000000     0          
O        O      0.814600000000     0.518733333333     0.239600000000     0          
O        O      0.891100000000     0.549700000000     0.208700000000     0          
O        O      0.909733333333     0.621533333333     0.174400000000     0          
O        O      0.964600000000     0.368766666667     0.171200000000     0          
O        O      0.896100000000     0.337066666667     0.123500000000     0          
O        O      0.851166666667     0.592266666667     0.097200000000     0          
O        O      0.822166666667     0.511200000000     0.089200000000     0          
O        O      0.884366666667     0.564433333333     0.040200000000     0          
O        O      0.922100000000     0.627700000000     0.986100000000     0          
O        O      0.846733333333     0.590033333333     0.592700000000     0          
O        O      0.823666666667     0.509700000000     0.591900000000     0          
O        O      0.884166666667     0.562733333333     0.540500000000     0          
O        O      0.706133333333     0.412266666667     0.487700000000     0          
T        Si     0.752000000000     0.418700000000     0.327900000000     0          
T        Si     0.862733333333     0.554900000000     0.245200000000     0          
T        Si     0.915533333333     0.334233333333     0.169300000000     0          
T        Si     0.863400000000     0.556766666667     0.087500000000     0          
T        Si     0.862533333333     0.556633333333     0.587300000000     0          
O        O      0.898200000000     0.334800000000     0.375800000000     0          
O        O      0.925000000000     0.629166666667     0.324700000000     0          
O        O      0.879200000000     0.659533333333     0.293000000000     0          
O        O      0.956266666667     0.377033333333     0.317300000000     0          
O        O      0.733533333333     0.599800000000     0.238200000000     0          
O        O      0.814600000000     0.629200000000     0.239600000000     0          
O        O      0.783633333333     0.341400000000     0.208700000000     0          
O        O      0.711800000000     0.621533333333     0.174400000000     0          
O        O      0.964566666667     0.595833333333     0.171200000000     0          
O        O      0.996266666667     0.559033333333     0.123500000000     0          
O        O      0.741066666667     0.592233333333     0.097200000000     0          
O        O      0.822133333333     0.644300000000     0.089200000000     0          
O        O      0.768900000000     0.653266666667     0.040200000000     0          
O        O      0.705633333333     0.627733333333     0.986100000000     0          
O        O      0.743300000000     0.590033333333     0.592700000000     0          
O        O      0.823633333333     0.647300000000     0.591900000000     0          
O        O      0.770600000000     0.654766666667     0.540500000000     0          
O        O      0.921066666667     0.627200000000     0.487700000000     0          
T        Si     0.914633333333     0.666633333333     0.327900000000     0          
T        Si     0.778433333333     0.641166666667     0.245200000000     0          
T        Si     0.999100000000     0.581300000000     0.169300000000     0          
T        Si     0.776566666667     0.639966666667     0.087500000000     0          
T        Si     0.776700000000     0.639233333333     0.587300000000     0          
O        O      0.769933333333     0.334800000000     0.375800000000     0          
O        O      0.780333333333     0.659533333333     0.293000000000     0          
O        O      0.891100000000     0.341400000000     0.208700000000     0          
O        O      0.896100000000     0.559033333333     0.123500000000     0          
O        O      0.884366666667     0.653266666667     0.040200000000     0          
O        O      0.884166666667     0.654766666667     0.540500000000     0          
T        Si     0.752000000000     0.666633333333     0.327900000000     0          
T        Si     0.862733333333     0.641166666667     0.245200000000     0          
T        Si     0.915533333333     0.581300000000     0.169300000000     0          
T        Si     0.863400000000     0.639966666667     0.087500000000     0          
T        Si     0.862533333333     0.639233333333     0.587300000000     0          
T        Si     0.751100000000     0.333333333333     0.500000000000     0          
T        Si     0.916366666667     0.583033333333     0.000000000000     0          
O        O      0.998533333333     0.435133333333     0.375800000000     0          
O        O      0.673800000000     0.454133333333     0.293000000000     0          
O        O      0.991933333333     0.549700000000     0.208700000000     0          
O        O      0.774300000000     0.337066666667     0.123500000000     0          
O        O      0.680066666667     0.564433333333     0.040200000000     0          
O        O      0.678566666667     0.562733333333     0.540500000000     0          
T        Si     0.666700000000     0.418700000000     0.327900000000     0          
T        Si     0.692166666667     0.554900000000     0.245200000000     0          
T        Si     0.752033333333     0.334233333333     0.169300000000     0          
T        Si     0.693366666667     0.556766666667     0.087500000000     0          
T        Si     0.694100000000     0.556633333333     0.587300000000     0          
T        Si     0.666666666667     0.417766666667     0.500000000000     0          
T        Si     0.750300000000     0.333333333333     0.000000000000     0          
O        O      0.898200000000     0.563400000000     0.375800000000     0          
O        O      0.879200000000     0.553000000000     0.293000000000     0          
O        O      0.783633333333     0.442233333333     0.208700000000     0          
O        O      0.996266666667     0.437233333333     0.123500000000     0          
O        O      0.768900000000     0.448966666667     0.040200000000     0          
O        O      0.770600000000     0.449166666667     0.540500000000     0          
T        Si     0.914633333333     0.581333333333     0.327900000000     0          
T        Si     0.778433333333     0.470600000000     0.245200000000     0          
T        Si     0.999100000000     0.417800000000     0.169300000000     0          
T        Si     0.776566666667     0.469933333333     0.087500000000     0          
T        Si     0.776700000000     0.470800000000     0.587300000000     0          
T        Si     0.915566666667     0.582233333333     0.500000000000     0          
T        Si     0.666666666667     0.416966666667     0.000000000000     0          
O        O      0.668133333333     0.436600000000     0.624200000000     0          
O        O      0.992866666667     0.447000000000     0.707000000000     0          
O        O      0.674733333333     0.557766666667     0.791300000000     0          
O        O      0.892366666667     0.562766666667     0.876500000000     0          
O        O      0.986600000000     0.551033333333     0.959800000000     0          
O        O      0.988100000000     0.550833333333     0.459500000000     0          
T        Si     0.999966666667     0.418666666667     0.672100000000     0          
T        Si     0.974500000000     0.529400000000     0.754800000000     0          
T        Si     0.914633333333     0.582200000000     0.830700000000     0          
T        Si     0.973300000000     0.530066666667     0.912500000000     0          
T        Si     0.972566666667     0.529200000000     0.412700000000     0          
O        O      0.896733333333     0.564866666667     0.624200000000     0          
O        O      0.886333333333     0.545866666667     0.707000000000     0          
O        O      0.775566666667     0.450300000000     0.791300000000     0          
O        O      0.770566666667     0.662933333333     0.876500000000     0          
O        O      0.782300000000     0.435566666667     0.959800000000     0          
O        O      0.782500000000     0.437266666667     0.459500000000     0          
T        Si     0.914666666667     0.581300000000     0.672100000000     0          
T        Si     0.803933333333     0.445100000000     0.754800000000     0          
T        Si     0.751133333333     0.665766666667     0.830700000000     0          
T        Si     0.803266666667     0.443233333333     0.912500000000     0          
T        Si     0.804133333333     0.443366666667     0.412700000000     0          
O        O      0.768466666667     0.665200000000     0.624200000000     0          
O        O      0.787466666667     0.340466666667     0.707000000000     0          
O        O      0.883033333333     0.658600000000     0.791300000000     0          
O        O      0.670400000000     0.440966666667     0.876500000000     0          
O        O      0.897766666667     0.346733333333     0.959800000000     0          
O        O      0.896066666667     0.345233333333     0.459500000000     0          
T        Si     0.752033333333     0.333366666667     0.672100000000     0          
T        Si     0.888233333333     0.358833333333     0.754800000000     0          
T        Si     0.667566666667     0.418700000000     0.830700000000     0          
T        Si     0.890100000000     0.360033333333     0.912500000000     0          
T        Si     0.889966666667     0.360766666667     0.412700000000     0          
O        O      0.896733333333     0.998533333333     0.624200000000     0          
O        O      0.962500000000     0.704166666667     0.675300000000     0          
O        O      0.886333333333     0.673800000000     0.707000000000     0          
O        O      0.912566666667     0.956300000000     0.682700000000     0          
O        O      0.800400000000     0.733533333333     0.761800000000     0          
O        O      0.852066666667     0.704133333333     0.760400000000     0          
O        O      0.775566666667     0.991933333333     0.791300000000     0          
O        O      0.756933333333     0.711800000000     0.825600000000     0          
O        O      0.702066666667     0.737500000000     0.828800000000     0          
O        O      0.770566666667     0.774300000000     0.876500000000     0          
O        O      0.815500000000     0.741100000000     0.902800000000     0          
O        O      0.844500000000     0.689033333333     0.910800000000     0          
O        O      0.782300000000     0.680066666667     0.959800000000     0          
O        O      0.744566666667     0.705600000000     0.013900000000     0          
O        O      0.819933333333     0.743300000000     0.407300000000     0          
O        O      0.843000000000     0.686033333333     0.408100000000     0          
O        O      0.782500000000     0.678566666667     0.459500000000     0          
O        O      0.960533333333     0.706133333333     0.512300000000     0          
T        Si     0.914666666667     0.666700000000     0.672100000000     0          
T        Si     0.803933333333     0.692166666667     0.754800000000     0          
T        Si     0.751133333333     0.752033333333     0.830700000000     0          
T        Si     0.803266666667     0.693366666667     0.912500000000     0          
T        Si     0.804133333333     0.694100000000     0.412700000000     0          
T        Si     0.915566666667     0.666666666667     0.500000000000     0          
T        Si     0.750300000000     0.750300000000     0.000000000000     0          
O        O      0.668133333333     0.898200000000     0.624200000000     0          
O        O      0.962500000000     0.925000000000     0.675300000000     0          
O        O      0.992866666667     0.879200000000     0.707000000000     0          
O        O      0.710366666667     0.956266666667     0.682700000000     0          
O        O      0.933133333333     0.733533333333     0.761800000000     0          
O        O      0.962533333333     0.814600000000     0.760400000000     0          
O        O      0.674733333333     0.783633333333     0.791300000000     0          
O        O      0.954866666667     0.711800000000     0.825600000000     0          
O        O      0.929166666667     0.964566666667     0.828800000000     0          
O        O      0.892366666667     0.996266666667     0.876500000000     0          
O        O      0.925566666667     0.741066666667     0.902800000000     0          
O        O      0.977633333333     0.822133333333     0.910800000000     0          
O        O      0.986600000000     0.768900000000     0.959800000000     0          
O        O      0.961066666667     0.705633333333     0.013900000000     0          
O        O      0.923366666667     0.743300000000     0.407300000000     0          
O        O      0.980633333333     0.823633333333     0.408100000000     0          
O        O      0.988100000000     0.770600000000     0.459500000000     0          
O        O      0.960533333333     0.921066666667     0.512300000000     0          
T        Si     0.999966666667     0.914633333333     0.672100000000     0          
T        Si     0.974500000000     0.778433333333     0.754800000000     0          
T        Si     0.914633333333     0.999100000000     0.830700000000     0          
T        Si     0.973300000000     0.776566666667     0.912500000000     0          
T        Si     0.972566666667     0.776700000000     0.412700000000     0          
T        Si     0.666666666667     0.915566666667     0.500000000000     0          
T        Si     0.916366666667     0.666666666667     0.000000000000     0          
O        O      0.768466666667     0.769933333333     0.624200000000     0          
O        O      0.741666666667     0.704166666667     0.675300000000     0          
O        O      0.787466666667     0.780333333333     0.707000000000     0          
O        O      0.710400000000     0.754100000000     0.682700000000     0          
O        O      0.933133333333     0.866266666667     0.761800000000     0          
O        O      0.852066666667     0.814600000000     0.760400000000     0          
O        O      0.883033333333     0.891100000000     0.791300000000     0          
O        O      0.954866666667     0.909733333333     0.825600000000     0          
O        O      0.702100000000     0.964600000000     0.828800000000     0          
O        O      0.670400000000     0.896100000000     0.876500000000     0          
O        O      0.925600000000     0.851166666667     0.902800000000     0          
O        O      0.844533333333     0.822166666667     0.910800000000     0          
O        O      0.897766666667     0.884366666667     0.959800000000     0          
O        O      0.961033333333     0.922100000000     0.013900000000     0          
O        O      0.923366666667     0.846733333333     0.407300000000     0          
O        O      0.843033333333     0.823666666667     0.408100000000     0          
O        O      0.896066666667     0.884166666667     0.459500000000     0          
O        O      0.745600000000     0.706133333333     0.512300000000     0          
T        Si     0.752033333333     0.752000000000     0.672100000000     0          
T        Si     0.888233333333     0.862733333333     0.754800000000     0          
T        Si     0.667566666667     0.915533333333     0.830700000000     0          
T        Si     0.890100000000     0.863400000000     0.912500000000     0          
T        Si     0.889966666667     0.862533333333     0.412700000000     0          
T        Si     0.751100000000     0.751100000000     0.500000000000     0          
T        Si     0.666666666667     0.916366666667     0.000000000000     0          
O        O      0.998533333333     0.896733333333     0.375800000000     0          
O        O      0.704166666667     0.962500000000     0.324700000000     0          
O        O      0.673800000000     0.886333333333     0.293000000000     0          
O        O      0.956300000000     0.912566666667     0.317300000000     0          
O        O      0.733533333333     0.800400000000     0.238200000000     0          
O        O      0.704133333333     0.852066666667     0.239600000000     0          
O        O      0.991933333333     0.775566666667     0.208700000000     0          
O        O      0.711800000000     0.756933333333     0.174400000000     0          
O        O      0.737500000000     0.702066666667     0.171200000000     0          
O        O      0.774300000000     0.770566666667     0.123500000000     0          
O        O      0.741100000000     0.815500000000     0.097200000000     0          
O        O      0.689033333333     0.844500000000     0.089200000000     0          
O        O      0.680066666667     0.782300000000     0.040200000000     0          
O        O      0.705600000000     0.744566666667     0.986100000000     0          
O        O      0.743300000000     0.819933333333     0.592700000000     0          
O        O      0.686033333333     0.843000000000     0.591900000000     0          
O        O      0.678566666667     0.782500000000     0.540500000000     0          
O        O      0.706133333333     0.960533333333     0.487700000000     0          
T        Si     0.666700000000     0.914666666667     0.327900000000     0          
T        Si     0.692166666667     0.803933333333     0.245200000000     0          
T        Si     0.752033333333     0.751133333333     0.169300000000     0          
T        Si     0.693366666667     0.803266666667     0.087500000000     0          
T        Si     0.694100000000     0.804133333333     0.587300000000     0          
O        O      0.769933333333     0.768466666667     0.375800000000     0          
O        O      0.704166666667     0.741666666667     0.324700000000     0          
O        O      0.780333333333     0.787466666667     0.293000000000     0          
O        O      0.754100000000     0.710400000000     0.317300000000     0          
O        O      0.866266666667     0.933133333333     0.238200000000     0          
O        O      0.814600000000     0.852066666667     0.239600000000     0          
O        O      0.891100000000     0.883033333333     0.208700000000     0          
O        O      0.909733333333     0.954866666667     0.174400000000     0          
O        O      0.964600000000     0.702100000000     0.171200000000     0          
O        O      0.896100000000     0.670400000000     0.123500000000     0          
O        O      0.851166666667     0.925600000000     0.097200000000     0          
O        O      0.822166666667     0.844533333333     0.089200000000     0          
O        O      0.884366666667     0.897766666667     0.040200000000     0          
O        O      0.922100000000     0.961033333333     0.986100000000     0          
O        O      0.846733333333     0.923366666667     0.592700000000     0          
O        O      0.823666666667     0.843033333333     0.591900000000     0          
O        O      0.884166666667     0.896066666667     0.540500000000     0          
O        O      0.706133333333     0.745600000000     0.487700000000     0          
T        Si     0.752000000000     0.752033333333     0.327900000000     0          
T        Si     0.862733333333     0.888233333333     0.245200000000     0          
T        Si     0.915533333333     0.667566666667     0.169300000000     0          
T        Si     0.863400000000     0.890100000000     0.087500000000     0          
T        Si     0.862533333333     0.889966666667     0.587300000000     0          
O        O      0.898200000000     0.668133333333     0.375800000000     0          
O        O      0.925000000000     0.962500000000     0.324700000000     0          
O        O      0.879200000000     0.992866666667     0.293000000000     0          
O        O      0.956266666667     0.710366666667     0.317300000000     0          
O        O      0.733533333333     0.933133333333     0.238200000000     0          
O        O      0.814600000000     0.962533333333     0.239600000000     0          
O        O      0.783633333333     0.674733333333     0.208700000000     0          
O        O      0.711800000000     0.954866666667     0.174400000000     0          
O        O      0.964566666667     0.929166666667     0.171200000000     0          
O        O      0.996266666667     0.892366666667     0.123500000000     0          
O        O      0.741066666667     0.925566666667     0.097200000000     0          
O        O      0.822133333333     0.977633333333     0.089200000000     0          
O        O      0.768900000000     0.986600000000     0.040200000000     0          
O        O      0.705633333333     0.961066666667     0.986100000000     0          
O        O      0.743300000000     0.923366666667     0.592700000000     0          
O        O      0.823633333333     0.980633333333     0.591900000000     0          
O        O      0.770600000000     0.988100000000     0.540500000000     0          
O        O      0.921066666667     0.960533333333     0.487700000000     0          
T        Si     0.914633333333     0.999966666667     0.327900000000     0          
T        Si     0.778433333333     0.974500000000     0.245200000000     0          
T        Si     0.999100000000     0.914633333333     0.169300000000     0          
T        Si     0.776566666667     0.973300000000     0.087500000000     0          
T        Si     0.776700000000     0.972566666667     0.587300000000     0          
O        O      0.769933333333     0.668133333333     0.375800000000     0          
O        O      0.780333333333     0.992866666667     0.293000000000     0          
O        O      0.891100000000     0.674733333333     0.208700000000     0          
O        O      0.896100000000     0.892366666667     0.123500000000     0          
O        O      0.884366666667     0.986600000000     0.040200000000     0          
O        O      0.884166666667     0.988100000000     0.540500000000     0          
T        Si     0.752000000000     0.999966666667     0.327900000000     0          
T        Si     0.862733333333     0.974500000000     0.245200000000     0          
T        Si     0.915533333333     0.914633333333     0.169300000000     0          
T        Si     0.863400000000     0.973300000000     0.087500000000     0          
T        Si     0.862533333333     0.972566666667     0.587300000000     0          
T        Si     0.751100000000     0.666666666667     0.500000000000     0          
T        Si     0.916366666667     0.916366666667     0.000000000000     0          
O        O      0.998533333333     0.768466666667     0.375800000000     0          
O        O      0.673800000000     0.787466666667     0.293000000000     0          
O        O      0.991933333333     0.883033333333     0.208700000000     0          
O        O      0.774300000000     0.670400000000     0.123500000000     0          
O        O      0.680066666667     0.897766666667     0.040200000000     0          
O        O      0.678566666667     0.896066666667     0.540500000000     0          
T        Si     0.666700000000     0.752033333333     0.327900000000     0          
T        Si     0.692166666667     0.888233333333     0.245200000000     0          
T        Si     0.752033333333     0.667566666667     0.169300000000     0          
T        Si     0.693366666667     0.890100000000     0.087500000000     0          
T        Si     0.694100000000     0.889966666667     0.587300000000     0          
T        Si     0.666666666667     0.751100000000     0.500000000000     0          
T        Si     0.750300000000     0.666666666667     0.000000000000     0          
O        O      0.898200000000     0.896733333333     0.375800000000     0          
O        O      0.879200000000     0.886333333333     0.293000000000     0          
O        O      0.783633333333     0.775566666667     0.208700000000     0          
O        O      0.996266666667     0.770566666667     0.123500000000     0          
O        O      0.768900000000     0.782300000000     0.040200000000     0          
O        O      0.770600000000     0.782500000000     0.540500000000     0          
T        Si     0.914633333333     0.914666666667     0.327900000000     0          
T        Si     0.778433333333     0.803933333333     0.245200000000     0          
T        Si     0.999100000000     0.751133333333     0.169300000000     0          
T        Si     0.776566666667     0.803266666667     0.087500000000     0          
T        Si     0.776700000000     0.804133333333     0.587300000000     0          
T        Si     0.915566666667     0.915566666667     0.500000000000     0          
T        Si     0.666666666667     0.750300000000     0.000000000000     0          
O        O      0.668133333333     0.769933333333     0.624200000000     0          
O        O      0.992866666667     0.780333333333     0.707000000000     0          
O        O      0.674733333333     0.891100000000     0.791300000000     0          
O        O      0.892366666667     0.896100000000     0.876500000000     0          
O        O      0.986600000000     0.884366666667     0.959800000000     0          
O        O      0.988100000000     0.884166666667     0.459500000000     0          
T        Si     0.999966666667     0.752000000000     0.672100000000     0          
T        Si     0.974500000000     0.862733333333     0.754800000000     0          
T        Si     0.914633333333     0.915533333333     0.830700000000     0          
T        Si     0.973300000000     0.863400000000     0.912500000000     0          
T        Si     0.972566666667     0.862533333333     0.412700000000     0          
O        O      0.896733333333     0.898200000000     0.624200000000     0          
O        O      0.886333333333     0.879200000000     0.707000000000     0          
O        O      0.775566666667     0.783633333333     0.791300000000     0          
O        O      0.770566666667     0.996266666667     0.876500000000     0          
O        O      0.782300000000     0.768900000000     0.959800000000     0          
O        O      0.782500000000     0.770600000000     0.459500000000     0          
T        Si     0.914666666667     0.914633333333     0.672100000000     0          
T        Si     0.803933333333     0.778433333333     0.754800000000     0          
T        Si     0.751133333333     0.999100000000     0.830700000000     0          
T        Si     0.803266666667     0.776566666667     0.912500000000     0          
T        Si     0.804133333333     0.776700000000     0.412700000000     0          
O        O      0.768466666667     0.998533333333     0.624200000000     0          
O        O      0.787466666667     0.673800000000     0.707000000000     0          
O        O      0.883033333333     0.991933333333     0.791300000000     0          
O        O      0.670400000000     0.774300000000     0.876500000000     0          
O        O      0.897766666667     0.680066666667     0.959800000000     0          
O        O      0.896066666667     0.678566666667     0.459500000000     0          
T        Si     0.752033333333     0.666700000000     0.672100000000     0          
T        Si     0.888233333333     0.692166666667     0.754800000000     0          
T        Si     0.667566666667     0.752033333333     0.830700000000     0          
T        Si     0.890100000000     0.693366666667     0.912500000000     0          
T        Si     0.889966666667     0.694100000000     0.412700000000     0          


