data_zeolite

_audit_creation_method RASPA-1.0
_audit_creation_date 2021-6-6
_audit_author_name ''

_cell_length_a    51.104
_cell_length_b    26.28
_cell_length_c    36.351
_cell_angle_alpha 90
_cell_angle_beta  109.312
_cell_angle_gamma 90
_cell_volume      46072.9

_symmetry_cell_setting          monoclinic
_symmetry_space_group_name_Hall 'P 1'
_symmetry_space_group_name_H-M  'P 1'
_symmetry_Int_Tables_number     1

_symmetry_equiv_pos_as_xyz 'x,y,z'

loop_
_atom_site_label
_atom_site_type_symbol
_atom_site_fract_x
_atom_site_fract_y
_atom_site_fract_z
_atom_site_charge
O        O      0.002250000000     0.000000000000     0.043766666667     0          
O        O      0.047900000000     0.150020000000     0.080700000000     0          
O        O      0.043800000000     0.000000000000     0.016333333333     0          
O        O      0.041300000000     0.050000000000     0.285866666667     0          
O        O      0.172000000000     0.000000000000     0.190333333333     0          
O        O      0.157650000000     0.000000000000     0.253166666667     0          
O        O      0.171700000000     0.000000000000     0.069300000000     0          
O        O      0.168700000000     0.000000000000     0.329000000000     0          
O        O      0.125400000000     0.149980000000     0.283833333333     0          
O        O      0.141900000000     0.000000000000     0.115933333333     0          
O        O      0.125000000000     0.150000000000     0.166666666667     0          
T        Si     0.035500000000     0.000000000000     0.055333333333     0          
T        Si     0.031050000000     0.000000000000     0.302766666667     0          
T        Si     0.183550000000     0.000000000000     0.237300000000     0          
T        Si     0.189450000000     0.000000000000     0.039966666667     0          
T        Si     0.144250000000     0.000000000000     0.287500000000     0          
T        Si     0.140650000000     0.000000000000     0.071133333333     0          
T        Si     0.140900000000     0.000000000000     0.159700000000     0          
O        O      0.497750000000     0.000000000000     0.289566666667     0          
O        O      0.452100000000     0.150020000000     0.252633333333     0          
O        O      0.456200000000     0.000000000000     0.317000000000     0          
O        O      0.458700000000     0.050000000000     0.047466666667     0          
O        O      0.328000000000     0.000000000000     0.143000000000     0          
O        O      0.342350000000     0.000000000000     0.080166666667     0          
O        O      0.328300000000     0.000000000000     0.264033333333     0          
O        O      0.331300000000     0.000000000000     0.004333333333     0          
O        O      0.374600000000     0.149980000000     0.049500000000     0          
O        O      0.358100000000     0.000000000000     0.217400000000     0          
O        O      0.375000000000     0.150000000000     0.166666666667     0          
T        Si     0.464500000000     0.000000000000     0.278000000000     0          
T        Si     0.468950000000     0.000000000000     0.030566666667     0          
T        Si     0.316450000000     0.000000000000     0.096033333333     0          
T        Si     0.310550000000     0.000000000000     0.293366666667     0          
T        Si     0.355750000000     0.000000000000     0.045833333333     0          
T        Si     0.359350000000     0.000000000000     0.262200000000     0          
T        Si     0.359100000000     0.000000000000     0.173633333333     0          
O        O      0.452100000000     0.049980000000     0.252633333333     0          
O        O      0.458700000000     0.150000000000     0.047466666667     0          
O        O      0.374600000000     0.050020000000     0.049500000000     0          
O        O      0.375000000000     0.050000000000     0.166666666667     0          
O        O      0.047900000000     0.049980000000     0.080700000000     0          
O        O      0.041300000000     0.150000000000     0.285866666667     0          
O        O      0.125400000000     0.050020000000     0.283833333333     0          
O        O      0.125000000000     0.050000000000     0.166666666667     0          
O        O      0.252250000000     0.100000000000     0.043766666667     0          
O        O      0.297900000000     0.050020000000     0.080700000000     0          
O        O      0.293800000000     0.100000000000     0.016333333333     0          
O        O      0.291300000000     0.150000000000     0.285866666667     0          
O        O      0.422000000000     0.100000000000     0.190333333333     0          
O        O      0.407650000000     0.100000000000     0.253166666667     0          
O        O      0.421700000000     0.100000000000     0.069300000000     0          
O        O      0.418700000000     0.100000000000     0.329000000000     0          
O        O      0.375400000000     0.049980000000     0.283833333333     0          
O        O      0.391900000000     0.100000000000     0.115933333333     0          
T        Si     0.285500000000     0.100000000000     0.055333333333     0          
T        Si     0.281050000000     0.100000000000     0.302766666667     0          
T        Si     0.433550000000     0.100000000000     0.237300000000     0          
T        Si     0.439450000000     0.100000000000     0.039966666667     0          
T        Si     0.394250000000     0.100000000000     0.287500000000     0          
T        Si     0.390650000000     0.100000000000     0.071133333333     0          
T        Si     0.390900000000     0.100000000000     0.159700000000     0          
O        O      0.247750000000     0.100000000000     0.289566666667     0          
O        O      0.202100000000     0.050020000000     0.252633333333     0          
O        O      0.206200000000     0.100000000000     0.317000000000     0          
O        O      0.208700000000     0.150000000000     0.047466666667     0          
O        O      0.078000000000     0.100000000000     0.143000000000     0          
O        O      0.092350000000     0.100000000000     0.080166666667     0          
O        O      0.078300000000     0.100000000000     0.264033333333     0          
O        O      0.081300000000     0.100000000000     0.004333333333     0          
O        O      0.124600000000     0.049980000000     0.049500000000     0          
O        O      0.108100000000     0.100000000000     0.217400000000     0          
T        Si     0.214500000000     0.100000000000     0.278000000000     0          
T        Si     0.218950000000     0.100000000000     0.030566666667     0          
T        Si     0.066450000000     0.100000000000     0.096033333333     0          
T        Si     0.060550000000     0.100000000000     0.293366666667     0          
T        Si     0.105750000000     0.100000000000     0.045833333333     0          
T        Si     0.109350000000     0.100000000000     0.262200000000     0          
T        Si     0.109100000000     0.100000000000     0.173633333333     0          
O        O      0.202100000000     0.149980000000     0.252633333333     0          
O        O      0.208700000000     0.050000000000     0.047466666667     0          
O        O      0.124600000000     0.150020000000     0.049500000000     0          
O        O      0.297900000000     0.149980000000     0.080700000000     0          
O        O      0.291300000000     0.050000000000     0.285866666667     0          
O        O      0.375400000000     0.150020000000     0.283833333333     0          
O        O      0.002250000000     0.000000000000     0.377100000000     0          
O        O      0.047900000000     0.150020000000     0.414033333333     0          
O        O      0.043800000000     0.000000000000     0.349666666667     0          
O        O      0.041300000000     0.050000000000     0.619200000000     0          
O        O      0.172000000000     0.000000000000     0.523666666667     0          
O        O      0.157650000000     0.000000000000     0.586500000000     0          
O        O      0.171700000000     0.000000000000     0.402633333333     0          
O        O      0.168700000000     0.000000000000     0.662333333333     0          
O        O      0.125400000000     0.149980000000     0.617166666667     0          
O        O      0.141900000000     0.000000000000     0.449266666667     0          
O        O      0.125000000000     0.150000000000     0.500000000000     0          
T        Si     0.035500000000     0.000000000000     0.388666666667     0          
T        Si     0.031050000000     0.000000000000     0.636100000000     0          
T        Si     0.183550000000     0.000000000000     0.570633333333     0          
T        Si     0.189450000000     0.000000000000     0.373300000000     0          
T        Si     0.144250000000     0.000000000000     0.620833333333     0          
T        Si     0.140650000000     0.000000000000     0.404466666667     0          
T        Si     0.140900000000     0.000000000000     0.493033333333     0          
O        O      0.497750000000     0.000000000000     0.622900000000     0          
O        O      0.452100000000     0.150020000000     0.585966666667     0          
O        O      0.456200000000     0.000000000000     0.650333333333     0          
O        O      0.458700000000     0.050000000000     0.380800000000     0          
O        O      0.328000000000     0.000000000000     0.476333333333     0          
O        O      0.342350000000     0.000000000000     0.413500000000     0          
O        O      0.328300000000     0.000000000000     0.597366666667     0          
O        O      0.331300000000     0.000000000000     0.337666666667     0          
O        O      0.374600000000     0.149980000000     0.382833333333     0          
O        O      0.358100000000     0.000000000000     0.550733333333     0          
O        O      0.375000000000     0.150000000000     0.500000000000     0          
T        Si     0.464500000000     0.000000000000     0.611333333333     0          
T        Si     0.468950000000     0.000000000000     0.363900000000     0          
T        Si     0.316450000000     0.000000000000     0.429366666667     0          
T        Si     0.310550000000     0.000000000000     0.626700000000     0          
T        Si     0.355750000000     0.000000000000     0.379166666667     0          
T        Si     0.359350000000     0.000000000000     0.595533333333     0          
T        Si     0.359100000000     0.000000000000     0.506966666667     0          
O        O      0.452100000000     0.049980000000     0.585966666667     0          
O        O      0.458700000000     0.150000000000     0.380800000000     0          
O        O      0.374600000000     0.050020000000     0.382833333333     0          
O        O      0.375000000000     0.050000000000     0.500000000000     0          
O        O      0.047900000000     0.049980000000     0.414033333333     0          
O        O      0.041300000000     0.150000000000     0.619200000000     0          
O        O      0.125400000000     0.050020000000     0.617166666667     0          
O        O      0.125000000000     0.050000000000     0.500000000000     0          
O        O      0.252250000000     0.100000000000     0.377100000000     0          
O        O      0.297900000000     0.050020000000     0.414033333333     0          
O        O      0.293800000000     0.100000000000     0.349666666667     0          
O        O      0.291300000000     0.150000000000     0.619200000000     0          
O        O      0.422000000000     0.100000000000     0.523666666667     0          
O        O      0.407650000000     0.100000000000     0.586500000000     0          
O        O      0.421700000000     0.100000000000     0.402633333333     0          
O        O      0.418700000000     0.100000000000     0.662333333333     0          
O        O      0.375400000000     0.049980000000     0.617166666667     0          
O        O      0.391900000000     0.100000000000     0.449266666667     0          
T        Si     0.285500000000     0.100000000000     0.388666666667     0          
T        Si     0.281050000000     0.100000000000     0.636100000000     0          
T        Si     0.433550000000     0.100000000000     0.570633333333     0          
T        Si     0.439450000000     0.100000000000     0.373300000000     0          
T        Si     0.394250000000     0.100000000000     0.620833333333     0          
T        Si     0.390650000000     0.100000000000     0.404466666667     0          
T        Si     0.390900000000     0.100000000000     0.493033333333     0          
O        O      0.247750000000     0.100000000000     0.622900000000     0          
O        O      0.202100000000     0.050020000000     0.585966666667     0          
O        O      0.206200000000     0.100000000000     0.650333333333     0          
O        O      0.208700000000     0.150000000000     0.380800000000     0          
O        O      0.078000000000     0.100000000000     0.476333333333     0          
O        O      0.092350000000     0.100000000000     0.413500000000     0          
O        O      0.078300000000     0.100000000000     0.597366666667     0          
O        O      0.081300000000     0.100000000000     0.337666666667     0          
O        O      0.124600000000     0.049980000000     0.382833333333     0          
O        O      0.108100000000     0.100000000000     0.550733333333     0          
T        Si     0.214500000000     0.100000000000     0.611333333333     0          
T        Si     0.218950000000     0.100000000000     0.363900000000     0          
T        Si     0.066450000000     0.100000000000     0.429366666667     0          
T        Si     0.060550000000     0.100000000000     0.626700000000     0          
T        Si     0.105750000000     0.100000000000     0.379166666667     0          
T        Si     0.109350000000     0.100000000000     0.595533333333     0          
T        Si     0.109100000000     0.100000000000     0.506966666667     0          
O        O      0.202100000000     0.149980000000     0.585966666667     0          
O        O      0.208700000000     0.050000000000     0.380800000000     0          
O        O      0.124600000000     0.150020000000     0.382833333333     0          
O        O      0.297900000000     0.149980000000     0.414033333333     0          
O        O      0.291300000000     0.050000000000     0.619200000000     0          
O        O      0.375400000000     0.150020000000     0.617166666667     0          
O        O      0.002250000000     0.000000000000     0.710433333333     0          
O        O      0.047900000000     0.150020000000     0.747366666667     0          
O        O      0.043800000000     0.000000000000     0.683000000000     0          
O        O      0.041300000000     0.050000000000     0.952533333333     0          
O        O      0.172000000000     0.000000000000     0.857000000000     0          
O        O      0.157650000000     0.000000000000     0.919833333333     0          
O        O      0.171700000000     0.000000000000     0.735966666667     0          
O        O      0.168700000000     0.000000000000     0.995666666667     0          
O        O      0.125400000000     0.149980000000     0.950500000000     0          
O        O      0.141900000000     0.000000000000     0.782600000000     0          
O        O      0.125000000000     0.150000000000     0.833333333333     0          
T        Si     0.035500000000     0.000000000000     0.722000000000     0          
T        Si     0.031050000000     0.000000000000     0.969433333333     0          
T        Si     0.183550000000     0.000000000000     0.903966666667     0          
T        Si     0.189450000000     0.000000000000     0.706633333333     0          
T        Si     0.144250000000     0.000000000000     0.954166666667     0          
T        Si     0.140650000000     0.000000000000     0.737800000000     0          
T        Si     0.140900000000     0.000000000000     0.826366666667     0          
O        O      0.497750000000     0.000000000000     0.956233333333     0          
O        O      0.452100000000     0.150020000000     0.919300000000     0          
O        O      0.456200000000     0.000000000000     0.983666666667     0          
O        O      0.458700000000     0.050000000000     0.714133333333     0          
O        O      0.328000000000     0.000000000000     0.809666666667     0          
O        O      0.342350000000     0.000000000000     0.746833333333     0          
O        O      0.328300000000     0.000000000000     0.930700000000     0          
O        O      0.331300000000     0.000000000000     0.671000000000     0          
O        O      0.374600000000     0.149980000000     0.716166666667     0          
O        O      0.358100000000     0.000000000000     0.884066666667     0          
O        O      0.375000000000     0.150000000000     0.833333333333     0          
T        Si     0.464500000000     0.000000000000     0.944666666667     0          
T        Si     0.468950000000     0.000000000000     0.697233333333     0          
T        Si     0.316450000000     0.000000000000     0.762700000000     0          
T        Si     0.310550000000     0.000000000000     0.960033333333     0          
T        Si     0.355750000000     0.000000000000     0.712500000000     0          
T        Si     0.359350000000     0.000000000000     0.928866666667     0          
T        Si     0.359100000000     0.000000000000     0.840300000000     0          
O        O      0.452100000000     0.049980000000     0.919300000000     0          
O        O      0.458700000000     0.150000000000     0.714133333333     0          
O        O      0.374600000000     0.050020000000     0.716166666667     0          
O        O      0.375000000000     0.050000000000     0.833333333333     0          
O        O      0.047900000000     0.049980000000     0.747366666667     0          
O        O      0.041300000000     0.150000000000     0.952533333333     0          
O        O      0.125400000000     0.050020000000     0.950500000000     0          
O        O      0.125000000000     0.050000000000     0.833333333333     0          
O        O      0.252250000000     0.100000000000     0.710433333333     0          
O        O      0.297900000000     0.050020000000     0.747366666667     0          
O        O      0.293800000000     0.100000000000     0.683000000000     0          
O        O      0.291300000000     0.150000000000     0.952533333333     0          
O        O      0.422000000000     0.100000000000     0.857000000000     0          
O        O      0.407650000000     0.100000000000     0.919833333333     0          
O        O      0.421700000000     0.100000000000     0.735966666667     0          
O        O      0.418700000000     0.100000000000     0.995666666667     0          
O        O      0.375400000000     0.049980000000     0.950500000000     0          
O        O      0.391900000000     0.100000000000     0.782600000000     0          
T        Si     0.285500000000     0.100000000000     0.722000000000     0          
T        Si     0.281050000000     0.100000000000     0.969433333333     0          
T        Si     0.433550000000     0.100000000000     0.903966666667     0          
T        Si     0.439450000000     0.100000000000     0.706633333333     0          
T        Si     0.394250000000     0.100000000000     0.954166666667     0          
T        Si     0.390650000000     0.100000000000     0.737800000000     0          
T        Si     0.390900000000     0.100000000000     0.826366666667     0          
O        O      0.247750000000     0.100000000000     0.956233333333     0          
O        O      0.202100000000     0.050020000000     0.919300000000     0          
O        O      0.206200000000     0.100000000000     0.983666666667     0          
O        O      0.208700000000     0.150000000000     0.714133333333     0          
O        O      0.078000000000     0.100000000000     0.809666666667     0          
O        O      0.092350000000     0.100000000000     0.746833333333     0          
O        O      0.078300000000     0.100000000000     0.930700000000     0          
O        O      0.081300000000     0.100000000000     0.671000000000     0          
O        O      0.124600000000     0.049980000000     0.716166666667     0          
O        O      0.108100000000     0.100000000000     0.884066666667     0          
T        Si     0.214500000000     0.100000000000     0.944666666667     0          
T        Si     0.218950000000     0.100000000000     0.697233333333     0          
T        Si     0.066450000000     0.100000000000     0.762700000000     0          
T        Si     0.060550000000     0.100000000000     0.960033333333     0          
T        Si     0.105750000000     0.100000000000     0.712500000000     0          
T        Si     0.109350000000     0.100000000000     0.928866666667     0          
T        Si     0.109100000000     0.100000000000     0.840300000000     0          
O        O      0.202100000000     0.149980000000     0.919300000000     0          
O        O      0.208700000000     0.050000000000     0.714133333333     0          
O        O      0.124600000000     0.150020000000     0.716166666667     0          
O        O      0.297900000000     0.149980000000     0.747366666667     0          
O        O      0.291300000000     0.050000000000     0.952533333333     0          
O        O      0.375400000000     0.150020000000     0.950500000000     0          
O        O      0.002250000000     0.200000000000     0.043766666667     0          
O        O      0.047900000000     0.350020000000     0.080700000000     0          
O        O      0.043800000000     0.200000000000     0.016333333333     0          
O        O      0.041300000000     0.250000000000     0.285866666667     0          
O        O      0.172000000000     0.200000000000     0.190333333333     0          
O        O      0.157650000000     0.200000000000     0.253166666667     0          
O        O      0.171700000000     0.200000000000     0.069300000000     0          
O        O      0.168700000000     0.200000000000     0.329000000000     0          
O        O      0.125400000000     0.349980000000     0.283833333333     0          
O        O      0.141900000000     0.200000000000     0.115933333333     0          
O        O      0.125000000000     0.350000000000     0.166666666667     0          
T        Si     0.035500000000     0.200000000000     0.055333333333     0          
T        Si     0.031050000000     0.200000000000     0.302766666667     0          
T        Si     0.183550000000     0.200000000000     0.237300000000     0          
T        Si     0.189450000000     0.200000000000     0.039966666667     0          
T        Si     0.144250000000     0.200000000000     0.287500000000     0          
T        Si     0.140650000000     0.200000000000     0.071133333333     0          
T        Si     0.140900000000     0.200000000000     0.159700000000     0          
O        O      0.497750000000     0.200000000000     0.289566666667     0          
O        O      0.452100000000     0.350020000000     0.252633333333     0          
O        O      0.456200000000     0.200000000000     0.317000000000     0          
O        O      0.458700000000     0.250000000000     0.047466666667     0          
O        O      0.328000000000     0.200000000000     0.143000000000     0          
O        O      0.342350000000     0.200000000000     0.080166666667     0          
O        O      0.328300000000     0.200000000000     0.264033333333     0          
O        O      0.331300000000     0.200000000000     0.004333333333     0          
O        O      0.374600000000     0.349980000000     0.049500000000     0          
O        O      0.358100000000     0.200000000000     0.217400000000     0          
O        O      0.375000000000     0.350000000000     0.166666666667     0          
T        Si     0.464500000000     0.200000000000     0.278000000000     0          
T        Si     0.468950000000     0.200000000000     0.030566666667     0          
T        Si     0.316450000000     0.200000000000     0.096033333333     0          
T        Si     0.310550000000     0.200000000000     0.293366666667     0          
T        Si     0.355750000000     0.200000000000     0.045833333333     0          
T        Si     0.359350000000     0.200000000000     0.262200000000     0          
T        Si     0.359100000000     0.200000000000     0.173633333333     0          
O        O      0.452100000000     0.249980000000     0.252633333333     0          
O        O      0.458700000000     0.350000000000     0.047466666667     0          
O        O      0.374600000000     0.250020000000     0.049500000000     0          
O        O      0.375000000000     0.250000000000     0.166666666667     0          
O        O      0.047900000000     0.249980000000     0.080700000000     0          
O        O      0.041300000000     0.350000000000     0.285866666667     0          
O        O      0.125400000000     0.250020000000     0.283833333333     0          
O        O      0.125000000000     0.250000000000     0.166666666667     0          
O        O      0.252250000000     0.300000000000     0.043766666667     0          
O        O      0.297900000000     0.250020000000     0.080700000000     0          
O        O      0.293800000000     0.300000000000     0.016333333333     0          
O        O      0.291300000000     0.350000000000     0.285866666667     0          
O        O      0.422000000000     0.300000000000     0.190333333333     0          
O        O      0.407650000000     0.300000000000     0.253166666667     0          
O        O      0.421700000000     0.300000000000     0.069300000000     0          
O        O      0.418700000000     0.300000000000     0.329000000000     0          
O        O      0.375400000000     0.249980000000     0.283833333333     0          
O        O      0.391900000000     0.300000000000     0.115933333333     0          
T        Si     0.285500000000     0.300000000000     0.055333333333     0          
T        Si     0.281050000000     0.300000000000     0.302766666667     0          
T        Si     0.433550000000     0.300000000000     0.237300000000     0          
T        Si     0.439450000000     0.300000000000     0.039966666667     0          
T        Si     0.394250000000     0.300000000000     0.287500000000     0          
T        Si     0.390650000000     0.300000000000     0.071133333333     0          
T        Si     0.390900000000     0.300000000000     0.159700000000     0          
O        O      0.247750000000     0.300000000000     0.289566666667     0          
O        O      0.202100000000     0.250020000000     0.252633333333     0          
O        O      0.206200000000     0.300000000000     0.317000000000     0          
O        O      0.208700000000     0.350000000000     0.047466666667     0          
O        O      0.078000000000     0.300000000000     0.143000000000     0          
O        O      0.092350000000     0.300000000000     0.080166666667     0          
O        O      0.078300000000     0.300000000000     0.264033333333     0          
O        O      0.081300000000     0.300000000000     0.004333333333     0          
O        O      0.124600000000     0.249980000000     0.049500000000     0          
O        O      0.108100000000     0.300000000000     0.217400000000     0          
T        Si     0.214500000000     0.300000000000     0.278000000000     0          
T        Si     0.218950000000     0.300000000000     0.030566666667     0          
T        Si     0.066450000000     0.300000000000     0.096033333333     0          
T        Si     0.060550000000     0.300000000000     0.293366666667     0          
T        Si     0.105750000000     0.300000000000     0.045833333333     0          
T        Si     0.109350000000     0.300000000000     0.262200000000     0          
T        Si     0.109100000000     0.300000000000     0.173633333333     0          
O        O      0.202100000000     0.349980000000     0.252633333333     0          
O        O      0.208700000000     0.250000000000     0.047466666667     0          
O        O      0.124600000000     0.350020000000     0.049500000000     0          
O        O      0.297900000000     0.349980000000     0.080700000000     0          
O        O      0.291300000000     0.250000000000     0.285866666667     0          
O        O      0.375400000000     0.350020000000     0.283833333333     0          
O        O      0.002250000000     0.200000000000     0.377100000000     0          
O        O      0.047900000000     0.350020000000     0.414033333333     0          
O        O      0.043800000000     0.200000000000     0.349666666667     0          
O        O      0.041300000000     0.250000000000     0.619200000000     0          
O        O      0.172000000000     0.200000000000     0.523666666667     0          
O        O      0.157650000000     0.200000000000     0.586500000000     0          
O        O      0.171700000000     0.200000000000     0.402633333333     0          
O        O      0.168700000000     0.200000000000     0.662333333333     0          
O        O      0.125400000000     0.349980000000     0.617166666667     0          
O        O      0.141900000000     0.200000000000     0.449266666667     0          
O        O      0.125000000000     0.350000000000     0.500000000000     0          
T        Si     0.035500000000     0.200000000000     0.388666666667     0          
T        Si     0.031050000000     0.200000000000     0.636100000000     0          
T        Si     0.183550000000     0.200000000000     0.570633333333     0          
T        Si     0.189450000000     0.200000000000     0.373300000000     0          
T        Si     0.144250000000     0.200000000000     0.620833333333     0          
T        Si     0.140650000000     0.200000000000     0.404466666667     0          
T        Si     0.140900000000     0.200000000000     0.493033333333     0          
O        O      0.497750000000     0.200000000000     0.622900000000     0          
O        O      0.452100000000     0.350020000000     0.585966666667     0          
O        O      0.456200000000     0.200000000000     0.650333333333     0          
O        O      0.458700000000     0.250000000000     0.380800000000     0          
O        O      0.328000000000     0.200000000000     0.476333333333     0          
O        O      0.342350000000     0.200000000000     0.413500000000     0          
O        O      0.328300000000     0.200000000000     0.597366666667     0          
O        O      0.331300000000     0.200000000000     0.337666666667     0          
O        O      0.374600000000     0.349980000000     0.382833333333     0          
O        O      0.358100000000     0.200000000000     0.550733333333     0          
O        O      0.375000000000     0.350000000000     0.500000000000     0          
T        Si     0.464500000000     0.200000000000     0.611333333333     0          
T        Si     0.468950000000     0.200000000000     0.363900000000     0          
T        Si     0.316450000000     0.200000000000     0.429366666667     0          
T        Si     0.310550000000     0.200000000000     0.626700000000     0          
T        Si     0.355750000000     0.200000000000     0.379166666667     0          
T        Si     0.359350000000     0.200000000000     0.595533333333     0          
T        Si     0.359100000000     0.200000000000     0.506966666667     0          
O        O      0.452100000000     0.249980000000     0.585966666667     0          
O        O      0.458700000000     0.350000000000     0.380800000000     0          
O        O      0.374600000000     0.250020000000     0.382833333333     0          
O        O      0.375000000000     0.250000000000     0.500000000000     0          
O        O      0.047900000000     0.249980000000     0.414033333333     0          
O        O      0.041300000000     0.350000000000     0.619200000000     0          
O        O      0.125400000000     0.250020000000     0.617166666667     0          
O        O      0.125000000000     0.250000000000     0.500000000000     0          
O        O      0.252250000000     0.300000000000     0.377100000000     0          
O        O      0.297900000000     0.250020000000     0.414033333333     0          
O        O      0.293800000000     0.300000000000     0.349666666667     0          
O        O      0.291300000000     0.350000000000     0.619200000000     0          
O        O      0.422000000000     0.300000000000     0.523666666667     0          
O        O      0.407650000000     0.300000000000     0.586500000000     0          
O        O      0.421700000000     0.300000000000     0.402633333333     0          
O        O      0.418700000000     0.300000000000     0.662333333333     0          
O        O      0.375400000000     0.249980000000     0.617166666667     0          
O        O      0.391900000000     0.300000000000     0.449266666667     0          
T        Si     0.285500000000     0.300000000000     0.388666666667     0          
T        Si     0.281050000000     0.300000000000     0.636100000000     0          
T        Si     0.433550000000     0.300000000000     0.570633333333     0          
T        Si     0.439450000000     0.300000000000     0.373300000000     0          
T        Si     0.394250000000     0.300000000000     0.620833333333     0          
T        Si     0.390650000000     0.300000000000     0.404466666667     0          
T        Si     0.390900000000     0.300000000000     0.493033333333     0          
O        O      0.247750000000     0.300000000000     0.622900000000     0          
O        O      0.202100000000     0.250020000000     0.585966666667     0          
O        O      0.206200000000     0.300000000000     0.650333333333     0          
O        O      0.208700000000     0.350000000000     0.380800000000     0          
O        O      0.078000000000     0.300000000000     0.476333333333     0          
O        O      0.092350000000     0.300000000000     0.413500000000     0          
O        O      0.078300000000     0.300000000000     0.597366666667     0          
O        O      0.081300000000     0.300000000000     0.337666666667     0          
O        O      0.124600000000     0.249980000000     0.382833333333     0          
O        O      0.108100000000     0.300000000000     0.550733333333     0          
T        Si     0.214500000000     0.300000000000     0.611333333333     0          
T        Si     0.218950000000     0.300000000000     0.363900000000     0          
T        Si     0.066450000000     0.300000000000     0.429366666667     0          
T        Si     0.060550000000     0.300000000000     0.626700000000     0          
T        Si     0.105750000000     0.300000000000     0.379166666667     0          
T        Si     0.109350000000     0.300000000000     0.595533333333     0          
T        Si     0.109100000000     0.300000000000     0.506966666667     0          
O        O      0.202100000000     0.349980000000     0.585966666667     0          
O        O      0.208700000000     0.250000000000     0.380800000000     0          
O        O      0.124600000000     0.350020000000     0.382833333333     0          
O        O      0.297900000000     0.349980000000     0.414033333333     0          
O        O      0.291300000000     0.250000000000     0.619200000000     0          
O        O      0.375400000000     0.350020000000     0.617166666667     0          
O        O      0.002250000000     0.200000000000     0.710433333333     0          
O        O      0.047900000000     0.350020000000     0.747366666667     0          
O        O      0.043800000000     0.200000000000     0.683000000000     0          
O        O      0.041300000000     0.250000000000     0.952533333333     0          
O        O      0.172000000000     0.200000000000     0.857000000000     0          
O        O      0.157650000000     0.200000000000     0.919833333333     0          
O        O      0.171700000000     0.200000000000     0.735966666667     0          
O        O      0.168700000000     0.200000000000     0.995666666667     0          
O        O      0.125400000000     0.349980000000     0.950500000000     0          
O        O      0.141900000000     0.200000000000     0.782600000000     0          
O        O      0.125000000000     0.350000000000     0.833333333333     0          
T        Si     0.035500000000     0.200000000000     0.722000000000     0          
T        Si     0.031050000000     0.200000000000     0.969433333333     0          
T        Si     0.183550000000     0.200000000000     0.903966666667     0          
T        Si     0.189450000000     0.200000000000     0.706633333333     0          
T        Si     0.144250000000     0.200000000000     0.954166666667     0          
T        Si     0.140650000000     0.200000000000     0.737800000000     0          
T        Si     0.140900000000     0.200000000000     0.826366666667     0          
O        O      0.497750000000     0.200000000000     0.956233333333     0          
O        O      0.452100000000     0.350020000000     0.919300000000     0          
O        O      0.456200000000     0.200000000000     0.983666666667     0          
O        O      0.458700000000     0.250000000000     0.714133333333     0          
O        O      0.328000000000     0.200000000000     0.809666666667     0          
O        O      0.342350000000     0.200000000000     0.746833333333     0          
O        O      0.328300000000     0.200000000000     0.930700000000     0          
O        O      0.331300000000     0.200000000000     0.671000000000     0          
O        O      0.374600000000     0.349980000000     0.716166666667     0          
O        O      0.358100000000     0.200000000000     0.884066666667     0          
O        O      0.375000000000     0.350000000000     0.833333333333     0          
T        Si     0.464500000000     0.200000000000     0.944666666667     0          
T        Si     0.468950000000     0.200000000000     0.697233333333     0          
T        Si     0.316450000000     0.200000000000     0.762700000000     0          
T        Si     0.310550000000     0.200000000000     0.960033333333     0          
T        Si     0.355750000000     0.200000000000     0.712500000000     0          
T        Si     0.359350000000     0.200000000000     0.928866666667     0          
T        Si     0.359100000000     0.200000000000     0.840300000000     0          
O        O      0.452100000000     0.249980000000     0.919300000000     0          
O        O      0.458700000000     0.350000000000     0.714133333333     0          
O        O      0.374600000000     0.250020000000     0.716166666667     0          
O        O      0.375000000000     0.250000000000     0.833333333333     0          
O        O      0.047900000000     0.249980000000     0.747366666667     0          
O        O      0.041300000000     0.350000000000     0.952533333333     0          
O        O      0.125400000000     0.250020000000     0.950500000000     0          
O        O      0.125000000000     0.250000000000     0.833333333333     0          
O        O      0.252250000000     0.300000000000     0.710433333333     0          
O        O      0.297900000000     0.250020000000     0.747366666667     0          
O        O      0.293800000000     0.300000000000     0.683000000000     0          
O        O      0.291300000000     0.350000000000     0.952533333333     0          
O        O      0.422000000000     0.300000000000     0.857000000000     0          
O        O      0.407650000000     0.300000000000     0.919833333333     0          
O        O      0.421700000000     0.300000000000     0.735966666667     0          
O        O      0.418700000000     0.300000000000     0.995666666667     0          
O        O      0.375400000000     0.249980000000     0.950500000000     0          
O        O      0.391900000000     0.300000000000     0.782600000000     0          
T        Si     0.285500000000     0.300000000000     0.722000000000     0          
T        Si     0.281050000000     0.300000000000     0.969433333333     0          
T        Si     0.433550000000     0.300000000000     0.903966666667     0          
T        Si     0.439450000000     0.300000000000     0.706633333333     0          
T        Si     0.394250000000     0.300000000000     0.954166666667     0          
T        Si     0.390650000000     0.300000000000     0.737800000000     0          
T        Si     0.390900000000     0.300000000000     0.826366666667     0          
O        O      0.247750000000     0.300000000000     0.956233333333     0          
O        O      0.202100000000     0.250020000000     0.919300000000     0          
O        O      0.206200000000     0.300000000000     0.983666666667     0          
O        O      0.208700000000     0.350000000000     0.714133333333     0          
O        O      0.078000000000     0.300000000000     0.809666666667     0          
O        O      0.092350000000     0.300000000000     0.746833333333     0          
O        O      0.078300000000     0.300000000000     0.930700000000     0          
O        O      0.081300000000     0.300000000000     0.671000000000     0          
O        O      0.124600000000     0.249980000000     0.716166666667     0          
O        O      0.108100000000     0.300000000000     0.884066666667     0          
T        Si     0.214500000000     0.300000000000     0.944666666667     0          
T        Si     0.218950000000     0.300000000000     0.697233333333     0          
T        Si     0.066450000000     0.300000000000     0.762700000000     0          
T        Si     0.060550000000     0.300000000000     0.960033333333     0          
T        Si     0.105750000000     0.300000000000     0.712500000000     0          
T        Si     0.109350000000     0.300000000000     0.928866666667     0          
T        Si     0.109100000000     0.300000000000     0.840300000000     0          
O        O      0.202100000000     0.349980000000     0.919300000000     0          
O        O      0.208700000000     0.250000000000     0.714133333333     0          
O        O      0.124600000000     0.350020000000     0.716166666667     0          
O        O      0.297900000000     0.349980000000     0.747366666667     0          
O        O      0.291300000000     0.250000000000     0.952533333333     0          
O        O      0.375400000000     0.350020000000     0.950500000000     0          
O        O      0.002250000000     0.400000000000     0.043766666667     0          
O        O      0.047900000000     0.550020000000     0.080700000000     0          
O        O      0.043800000000     0.400000000000     0.016333333333     0          
O        O      0.041300000000     0.450000000000     0.285866666667     0          
O        O      0.172000000000     0.400000000000     0.190333333333     0          
O        O      0.157650000000     0.400000000000     0.253166666667     0          
O        O      0.171700000000     0.400000000000     0.069300000000     0          
O        O      0.168700000000     0.400000000000     0.329000000000     0          
O        O      0.125400000000     0.549980000000     0.283833333333     0          
O        O      0.141900000000     0.400000000000     0.115933333333     0          
O        O      0.125000000000     0.550000000000     0.166666666667     0          
T        Si     0.035500000000     0.400000000000     0.055333333333     0          
T        Si     0.031050000000     0.400000000000     0.302766666667     0          
T        Si     0.183550000000     0.400000000000     0.237300000000     0          
T        Si     0.189450000000     0.400000000000     0.039966666667     0          
T        Si     0.144250000000     0.400000000000     0.287500000000     0          
T        Si     0.140650000000     0.400000000000     0.071133333333     0          
T        Si     0.140900000000     0.400000000000     0.159700000000     0          
O        O      0.497750000000     0.400000000000     0.289566666667     0          
O        O      0.452100000000     0.550020000000     0.252633333333     0          
O        O      0.456200000000     0.400000000000     0.317000000000     0          
O        O      0.458700000000     0.450000000000     0.047466666667     0          
O        O      0.328000000000     0.400000000000     0.143000000000     0          
O        O      0.342350000000     0.400000000000     0.080166666667     0          
O        O      0.328300000000     0.400000000000     0.264033333333     0          
O        O      0.331300000000     0.400000000000     0.004333333333     0          
O        O      0.374600000000     0.549980000000     0.049500000000     0          
O        O      0.358100000000     0.400000000000     0.217400000000     0          
O        O      0.375000000000     0.550000000000     0.166666666667     0          
T        Si     0.464500000000     0.400000000000     0.278000000000     0          
T        Si     0.468950000000     0.400000000000     0.030566666667     0          
T        Si     0.316450000000     0.400000000000     0.096033333333     0          
T        Si     0.310550000000     0.400000000000     0.293366666667     0          
T        Si     0.355750000000     0.400000000000     0.045833333333     0          
T        Si     0.359350000000     0.400000000000     0.262200000000     0          
T        Si     0.359100000000     0.400000000000     0.173633333333     0          
O        O      0.452100000000     0.449980000000     0.252633333333     0          
O        O      0.458700000000     0.550000000000     0.047466666667     0          
O        O      0.374600000000     0.450020000000     0.049500000000     0          
O        O      0.375000000000     0.450000000000     0.166666666667     0          
O        O      0.047900000000     0.449980000000     0.080700000000     0          
O        O      0.041300000000     0.550000000000     0.285866666667     0          
O        O      0.125400000000     0.450020000000     0.283833333333     0          
O        O      0.125000000000     0.450000000000     0.166666666667     0          
O        O      0.252250000000     0.500000000000     0.043766666667     0          
O        O      0.297900000000     0.450020000000     0.080700000000     0          
O        O      0.293800000000     0.500000000000     0.016333333333     0          
O        O      0.291300000000     0.550000000000     0.285866666667     0          
O        O      0.422000000000     0.500000000000     0.190333333333     0          
O        O      0.407650000000     0.500000000000     0.253166666667     0          
O        O      0.421700000000     0.500000000000     0.069300000000     0          
O        O      0.418700000000     0.500000000000     0.329000000000     0          
O        O      0.375400000000     0.449980000000     0.283833333333     0          
O        O      0.391900000000     0.500000000000     0.115933333333     0          
T        Si     0.285500000000     0.500000000000     0.055333333333     0          
T        Si     0.281050000000     0.500000000000     0.302766666667     0          
T        Si     0.433550000000     0.500000000000     0.237300000000     0          
T        Si     0.439450000000     0.500000000000     0.039966666667     0          
T        Si     0.394250000000     0.500000000000     0.287500000000     0          
T        Si     0.390650000000     0.500000000000     0.071133333333     0          
T        Si     0.390900000000     0.500000000000     0.159700000000     0          
O        O      0.247750000000     0.500000000000     0.289566666667     0          
O        O      0.202100000000     0.450020000000     0.252633333333     0          
O        O      0.206200000000     0.500000000000     0.317000000000     0          
O        O      0.208700000000     0.550000000000     0.047466666667     0          
O        O      0.078000000000     0.500000000000     0.143000000000     0          
O        O      0.092350000000     0.500000000000     0.080166666667     0          
O        O      0.078300000000     0.500000000000     0.264033333333     0          
O        O      0.081300000000     0.500000000000     0.004333333333     0          
O        O      0.124600000000     0.449980000000     0.049500000000     0          
O        O      0.108100000000     0.500000000000     0.217400000000     0          
T        Si     0.214500000000     0.500000000000     0.278000000000     0          
T        Si     0.218950000000     0.500000000000     0.030566666667     0          
T        Si     0.066450000000     0.500000000000     0.096033333333     0          
T        Si     0.060550000000     0.500000000000     0.293366666667     0          
T        Si     0.105750000000     0.500000000000     0.045833333333     0          
T        Si     0.109350000000     0.500000000000     0.262200000000     0          
T        Si     0.109100000000     0.500000000000     0.173633333333     0          
O        O      0.202100000000     0.549980000000     0.252633333333     0          
O        O      0.208700000000     0.450000000000     0.047466666667     0          
O        O      0.124600000000     0.550020000000     0.049500000000     0          
O        O      0.297900000000     0.549980000000     0.080700000000     0          
O        O      0.291300000000     0.450000000000     0.285866666667     0          
O        O      0.375400000000     0.550020000000     0.283833333333     0          
O        O      0.002250000000     0.400000000000     0.377100000000     0          
O        O      0.047900000000     0.550020000000     0.414033333333     0          
O        O      0.043800000000     0.400000000000     0.349666666667     0          
O        O      0.041300000000     0.450000000000     0.619200000000     0          
O        O      0.172000000000     0.400000000000     0.523666666667     0          
O        O      0.157650000000     0.400000000000     0.586500000000     0          
O        O      0.171700000000     0.400000000000     0.402633333333     0          
O        O      0.168700000000     0.400000000000     0.662333333333     0          
O        O      0.125400000000     0.549980000000     0.617166666667     0          
O        O      0.141900000000     0.400000000000     0.449266666667     0          
O        O      0.125000000000     0.550000000000     0.500000000000     0          
T        Si     0.035500000000     0.400000000000     0.388666666667     0          
T        Si     0.031050000000     0.400000000000     0.636100000000     0          
T        Si     0.183550000000     0.400000000000     0.570633333333     0          
T        Si     0.189450000000     0.400000000000     0.373300000000     0          
T        Si     0.144250000000     0.400000000000     0.620833333333     0          
T        Si     0.140650000000     0.400000000000     0.404466666667     0          
T        Si     0.140900000000     0.400000000000     0.493033333333     0          
O        O      0.497750000000     0.400000000000     0.622900000000     0          
O        O      0.452100000000     0.550020000000     0.585966666667     0          
O        O      0.456200000000     0.400000000000     0.650333333333     0          
O        O      0.458700000000     0.450000000000     0.380800000000     0          
O        O      0.328000000000     0.400000000000     0.476333333333     0          
O        O      0.342350000000     0.400000000000     0.413500000000     0          
O        O      0.328300000000     0.400000000000     0.597366666667     0          
O        O      0.331300000000     0.400000000000     0.337666666667     0          
O        O      0.374600000000     0.549980000000     0.382833333333     0          
O        O      0.358100000000     0.400000000000     0.550733333333     0          
O        O      0.375000000000     0.550000000000     0.500000000000     0          
T        Si     0.464500000000     0.400000000000     0.611333333333     0          
T        Si     0.468950000000     0.400000000000     0.363900000000     0          
T        Si     0.316450000000     0.400000000000     0.429366666667     0          
T        Si     0.310550000000     0.400000000000     0.626700000000     0          
T        Si     0.355750000000     0.400000000000     0.379166666667     0          
T        Si     0.359350000000     0.400000000000     0.595533333333     0          
T        Si     0.359100000000     0.400000000000     0.506966666667     0          
O        O      0.452100000000     0.449980000000     0.585966666667     0          
O        O      0.458700000000     0.550000000000     0.380800000000     0          
O        O      0.374600000000     0.450020000000     0.382833333333     0          
O        O      0.375000000000     0.450000000000     0.500000000000     0          
O        O      0.047900000000     0.449980000000     0.414033333333     0          
O        O      0.041300000000     0.550000000000     0.619200000000     0          
O        O      0.125400000000     0.450020000000     0.617166666667     0          
O        O      0.125000000000     0.450000000000     0.500000000000     0          
O        O      0.252250000000     0.500000000000     0.377100000000     0          
O        O      0.297900000000     0.450020000000     0.414033333333     0          
O        O      0.293800000000     0.500000000000     0.349666666667     0          
O        O      0.291300000000     0.550000000000     0.619200000000     0          
O        O      0.422000000000     0.500000000000     0.523666666667     0          
O        O      0.407650000000     0.500000000000     0.586500000000     0          
O        O      0.421700000000     0.500000000000     0.402633333333     0          
O        O      0.418700000000     0.500000000000     0.662333333333     0          
O        O      0.375400000000     0.449980000000     0.617166666667     0          
O        O      0.391900000000     0.500000000000     0.449266666667     0          
T        Si     0.285500000000     0.500000000000     0.388666666667     0          
T        Si     0.281050000000     0.500000000000     0.636100000000     0          
T        Si     0.433550000000     0.500000000000     0.570633333333     0          
T        Si     0.439450000000     0.500000000000     0.373300000000     0          
T        Si     0.394250000000     0.500000000000     0.620833333333     0          
T        Si     0.390650000000     0.500000000000     0.404466666667     0          
T        Si     0.390900000000     0.500000000000     0.493033333333     0          
O        O      0.247750000000     0.500000000000     0.622900000000     0          
O        O      0.202100000000     0.450020000000     0.585966666667     0          
O        O      0.206200000000     0.500000000000     0.650333333333     0          
O        O      0.208700000000     0.550000000000     0.380800000000     0          
O        O      0.078000000000     0.500000000000     0.476333333333     0          
O        O      0.092350000000     0.500000000000     0.413500000000     0          
O        O      0.078300000000     0.500000000000     0.597366666667     0          
O        O      0.081300000000     0.500000000000     0.337666666667     0          
O        O      0.124600000000     0.449980000000     0.382833333333     0          
O        O      0.108100000000     0.500000000000     0.550733333333     0          
T        Si     0.214500000000     0.500000000000     0.611333333333     0          
T        Si     0.218950000000     0.500000000000     0.363900000000     0          
T        Si     0.066450000000     0.500000000000     0.429366666667     0          
T        Si     0.060550000000     0.500000000000     0.626700000000     0          
T        Si     0.105750000000     0.500000000000     0.379166666667     0          
T        Si     0.109350000000     0.500000000000     0.595533333333     0          
T        Si     0.109100000000     0.500000000000     0.506966666667     0          
O        O      0.202100000000     0.549980000000     0.585966666667     0          
O        O      0.208700000000     0.450000000000     0.380800000000     0          
O        O      0.124600000000     0.550020000000     0.382833333333     0          
O        O      0.297900000000     0.549980000000     0.414033333333     0          
O        O      0.291300000000     0.450000000000     0.619200000000     0          
O        O      0.375400000000     0.550020000000     0.617166666667     0          
O        O      0.002250000000     0.400000000000     0.710433333333     0          
O        O      0.047900000000     0.550020000000     0.747366666667     0          
O        O      0.043800000000     0.400000000000     0.683000000000     0          
O        O      0.041300000000     0.450000000000     0.952533333333     0          
O        O      0.172000000000     0.400000000000     0.857000000000     0          
O        O      0.157650000000     0.400000000000     0.919833333333     0          
O        O      0.171700000000     0.400000000000     0.735966666667     0          
O        O      0.168700000000     0.400000000000     0.995666666667     0          
O        O      0.125400000000     0.549980000000     0.950500000000     0          
O        O      0.141900000000     0.400000000000     0.782600000000     0          
O        O      0.125000000000     0.550000000000     0.833333333333     0          
T        Si     0.035500000000     0.400000000000     0.722000000000     0          
T        Si     0.031050000000     0.400000000000     0.969433333333     0          
T        Si     0.183550000000     0.400000000000     0.903966666667     0          
T        Si     0.189450000000     0.400000000000     0.706633333333     0          
T        Si     0.144250000000     0.400000000000     0.954166666667     0          
T        Si     0.140650000000     0.400000000000     0.737800000000     0          
T        Si     0.140900000000     0.400000000000     0.826366666667     0          
O        O      0.497750000000     0.400000000000     0.956233333333     0          
O        O      0.452100000000     0.550020000000     0.919300000000     0          
O        O      0.456200000000     0.400000000000     0.983666666667     0          
O        O      0.458700000000     0.450000000000     0.714133333333     0          
O        O      0.328000000000     0.400000000000     0.809666666667     0          
O        O      0.342350000000     0.400000000000     0.746833333333     0          
O        O      0.328300000000     0.400000000000     0.930700000000     0          
O        O      0.331300000000     0.400000000000     0.671000000000     0          
O        O      0.374600000000     0.549980000000     0.716166666667     0          
O        O      0.358100000000     0.400000000000     0.884066666667     0          
O        O      0.375000000000     0.550000000000     0.833333333333     0          
T        Si     0.464500000000     0.400000000000     0.944666666667     0          
T        Si     0.468950000000     0.400000000000     0.697233333333     0          
T        Si     0.316450000000     0.400000000000     0.762700000000     0          
T        Si     0.310550000000     0.400000000000     0.960033333333     0          
T        Si     0.355750000000     0.400000000000     0.712500000000     0          
T        Si     0.359350000000     0.400000000000     0.928866666667     0          
T        Si     0.359100000000     0.400000000000     0.840300000000     0          
O        O      0.452100000000     0.449980000000     0.919300000000     0          
O        O      0.458700000000     0.550000000000     0.714133333333     0          
O        O      0.374600000000     0.450020000000     0.716166666667     0          
O        O      0.375000000000     0.450000000000     0.833333333333     0          
O        O      0.047900000000     0.449980000000     0.747366666667     0          
O        O      0.041300000000     0.550000000000     0.952533333333     0          
O        O      0.125400000000     0.450020000000     0.950500000000     0          
O        O      0.125000000000     0.450000000000     0.833333333333     0          
O        O      0.252250000000     0.500000000000     0.710433333333     0          
O        O      0.297900000000     0.450020000000     0.747366666667     0          
O        O      0.293800000000     0.500000000000     0.683000000000     0          
O        O      0.291300000000     0.550000000000     0.952533333333     0          
O        O      0.422000000000     0.500000000000     0.857000000000     0          
O        O      0.407650000000     0.500000000000     0.919833333333     0          
O        O      0.421700000000     0.500000000000     0.735966666667     0          
O        O      0.418700000000     0.500000000000     0.995666666667     0          
O        O      0.375400000000     0.449980000000     0.950500000000     0          
O        O      0.391900000000     0.500000000000     0.782600000000     0          
T        Si     0.285500000000     0.500000000000     0.722000000000     0          
T        Si     0.281050000000     0.500000000000     0.969433333333     0          
T        Si     0.433550000000     0.500000000000     0.903966666667     0          
T        Si     0.439450000000     0.500000000000     0.706633333333     0          
T        Si     0.394250000000     0.500000000000     0.954166666667     0          
T        Si     0.390650000000     0.500000000000     0.737800000000     0          
T        Si     0.390900000000     0.500000000000     0.826366666667     0          
O        O      0.247750000000     0.500000000000     0.956233333333     0          
O        O      0.202100000000     0.450020000000     0.919300000000     0          
O        O      0.206200000000     0.500000000000     0.983666666667     0          
O        O      0.208700000000     0.550000000000     0.714133333333     0          
O        O      0.078000000000     0.500000000000     0.809666666667     0          
O        O      0.092350000000     0.500000000000     0.746833333333     0          
O        O      0.078300000000     0.500000000000     0.930700000000     0          
O        O      0.081300000000     0.500000000000     0.671000000000     0          
O        O      0.124600000000     0.449980000000     0.716166666667     0          
O        O      0.108100000000     0.500000000000     0.884066666667     0          
T        Si     0.214500000000     0.500000000000     0.944666666667     0          
T        Si     0.218950000000     0.500000000000     0.697233333333     0          
T        Si     0.066450000000     0.500000000000     0.762700000000     0          
T        Si     0.060550000000     0.500000000000     0.960033333333     0          
T        Si     0.105750000000     0.500000000000     0.712500000000     0          
T        Si     0.109350000000     0.500000000000     0.928866666667     0          
T        Si     0.109100000000     0.500000000000     0.840300000000     0          
O        O      0.202100000000     0.549980000000     0.919300000000     0          
O        O      0.208700000000     0.450000000000     0.714133333333     0          
O        O      0.124600000000     0.550020000000     0.716166666667     0          
O        O      0.297900000000     0.549980000000     0.747366666667     0          
O        O      0.291300000000     0.450000000000     0.952533333333     0          
O        O      0.375400000000     0.550020000000     0.950500000000     0          
O        O      0.002250000000     0.600000000000     0.043766666667     0          
O        O      0.047900000000     0.750020000000     0.080700000000     0          
O        O      0.043800000000     0.600000000000     0.016333333333     0          
O        O      0.041300000000     0.650000000000     0.285866666667     0          
O        O      0.172000000000     0.600000000000     0.190333333333     0          
O        O      0.157650000000     0.600000000000     0.253166666667     0          
O        O      0.171700000000     0.600000000000     0.069300000000     0          
O        O      0.168700000000     0.600000000000     0.329000000000     0          
O        O      0.125400000000     0.749980000000     0.283833333333     0          
O        O      0.141900000000     0.600000000000     0.115933333333     0          
O        O      0.125000000000     0.750000000000     0.166666666667     0          
T        Si     0.035500000000     0.600000000000     0.055333333333     0          
T        Si     0.031050000000     0.600000000000     0.302766666667     0          
T        Si     0.183550000000     0.600000000000     0.237300000000     0          
T        Si     0.189450000000     0.600000000000     0.039966666667     0          
T        Si     0.144250000000     0.600000000000     0.287500000000     0          
T        Si     0.140650000000     0.600000000000     0.071133333333     0          
T        Si     0.140900000000     0.600000000000     0.159700000000     0          
O        O      0.497750000000     0.600000000000     0.289566666667     0          
O        O      0.452100000000     0.750020000000     0.252633333333     0          
O        O      0.456200000000     0.600000000000     0.317000000000     0          
O        O      0.458700000000     0.650000000000     0.047466666667     0          
O        O      0.328000000000     0.600000000000     0.143000000000     0          
O        O      0.342350000000     0.600000000000     0.080166666667     0          
O        O      0.328300000000     0.600000000000     0.264033333333     0          
O        O      0.331300000000     0.600000000000     0.004333333333     0          
O        O      0.374600000000     0.749980000000     0.049500000000     0          
O        O      0.358100000000     0.600000000000     0.217400000000     0          
O        O      0.375000000000     0.750000000000     0.166666666667     0          
T        Si     0.464500000000     0.600000000000     0.278000000000     0          
T        Si     0.468950000000     0.600000000000     0.030566666667     0          
T        Si     0.316450000000     0.600000000000     0.096033333333     0          
T        Si     0.310550000000     0.600000000000     0.293366666667     0          
T        Si     0.355750000000     0.600000000000     0.045833333333     0          
T        Si     0.359350000000     0.600000000000     0.262200000000     0          
T        Si     0.359100000000     0.600000000000     0.173633333333     0          
O        O      0.452100000000     0.649980000000     0.252633333333     0          
O        O      0.458700000000     0.750000000000     0.047466666667     0          
O        O      0.374600000000     0.650020000000     0.049500000000     0          
O        O      0.375000000000     0.650000000000     0.166666666667     0          
O        O      0.047900000000     0.649980000000     0.080700000000     0          
O        O      0.041300000000     0.750000000000     0.285866666667     0          
O        O      0.125400000000     0.650020000000     0.283833333333     0          
O        O      0.125000000000     0.650000000000     0.166666666667     0          
O        O      0.252250000000     0.700000000000     0.043766666667     0          
O        O      0.297900000000     0.650020000000     0.080700000000     0          
O        O      0.293800000000     0.700000000000     0.016333333333     0          
O        O      0.291300000000     0.750000000000     0.285866666667     0          
O        O      0.422000000000     0.700000000000     0.190333333333     0          
O        O      0.407650000000     0.700000000000     0.253166666667     0          
O        O      0.421700000000     0.700000000000     0.069300000000     0          
O        O      0.418700000000     0.700000000000     0.329000000000     0          
O        O      0.375400000000     0.649980000000     0.283833333333     0          
O        O      0.391900000000     0.700000000000     0.115933333333     0          
T        Si     0.285500000000     0.700000000000     0.055333333333     0          
T        Si     0.281050000000     0.700000000000     0.302766666667     0          
T        Si     0.433550000000     0.700000000000     0.237300000000     0          
T        Si     0.439450000000     0.700000000000     0.039966666667     0          
T        Si     0.394250000000     0.700000000000     0.287500000000     0          
T        Si     0.390650000000     0.700000000000     0.071133333333     0          
T        Si     0.390900000000     0.700000000000     0.159700000000     0          
O        O      0.247750000000     0.700000000000     0.289566666667     0          
O        O      0.202100000000     0.650020000000     0.252633333333     0          
O        O      0.206200000000     0.700000000000     0.317000000000     0          
O        O      0.208700000000     0.750000000000     0.047466666667     0          
O        O      0.078000000000     0.700000000000     0.143000000000     0          
O        O      0.092350000000     0.700000000000     0.080166666667     0          
O        O      0.078300000000     0.700000000000     0.264033333333     0          
O        O      0.081300000000     0.700000000000     0.004333333333     0          
O        O      0.124600000000     0.649980000000     0.049500000000     0          
O        O      0.108100000000     0.700000000000     0.217400000000     0          
T        Si     0.214500000000     0.700000000000     0.278000000000     0          
T        Si     0.218950000000     0.700000000000     0.030566666667     0          
T        Si     0.066450000000     0.700000000000     0.096033333333     0          
T        Si     0.060550000000     0.700000000000     0.293366666667     0          
T        Si     0.105750000000     0.700000000000     0.045833333333     0          
T        Si     0.109350000000     0.700000000000     0.262200000000     0          
T        Si     0.109100000000     0.700000000000     0.173633333333     0          
O        O      0.202100000000     0.749980000000     0.252633333333     0          
O        O      0.208700000000     0.650000000000     0.047466666667     0          
O        O      0.124600000000     0.750020000000     0.049500000000     0          
O        O      0.297900000000     0.749980000000     0.080700000000     0          
O        O      0.291300000000     0.650000000000     0.285866666667     0          
O        O      0.375400000000     0.750020000000     0.283833333333     0          
O        O      0.002250000000     0.600000000000     0.377100000000     0          
O        O      0.047900000000     0.750020000000     0.414033333333     0          
O        O      0.043800000000     0.600000000000     0.349666666667     0          
O        O      0.041300000000     0.650000000000     0.619200000000     0          
O        O      0.172000000000     0.600000000000     0.523666666667     0          
O        O      0.157650000000     0.600000000000     0.586500000000     0          
O        O      0.171700000000     0.600000000000     0.402633333333     0          
O        O      0.168700000000     0.600000000000     0.662333333333     0          
O        O      0.125400000000     0.749980000000     0.617166666667     0          
O        O      0.141900000000     0.600000000000     0.449266666667     0          
O        O      0.125000000000     0.750000000000     0.500000000000     0          
T        Si     0.035500000000     0.600000000000     0.388666666667     0          
T        Si     0.031050000000     0.600000000000     0.636100000000     0          
T        Si     0.183550000000     0.600000000000     0.570633333333     0          
T        Si     0.189450000000     0.600000000000     0.373300000000     0          
T        Si     0.144250000000     0.600000000000     0.620833333333     0          
T        Si     0.140650000000     0.600000000000     0.404466666667     0          
T        Si     0.140900000000     0.600000000000     0.493033333333     0          
O        O      0.497750000000     0.600000000000     0.622900000000     0          
O        O      0.452100000000     0.750020000000     0.585966666667     0          
O        O      0.456200000000     0.600000000000     0.650333333333     0          
O        O      0.458700000000     0.650000000000     0.380800000000     0          
O        O      0.328000000000     0.600000000000     0.476333333333     0          
O        O      0.342350000000     0.600000000000     0.413500000000     0          
O        O      0.328300000000     0.600000000000     0.597366666667     0          
O        O      0.331300000000     0.600000000000     0.337666666667     0          
O        O      0.374600000000     0.749980000000     0.382833333333     0          
O        O      0.358100000000     0.600000000000     0.550733333333     0          
O        O      0.375000000000     0.750000000000     0.500000000000     0          
T        Si     0.464500000000     0.600000000000     0.611333333333     0          
T        Si     0.468950000000     0.600000000000     0.363900000000     0          
T        Si     0.316450000000     0.600000000000     0.429366666667     0          
T        Si     0.310550000000     0.600000000000     0.626700000000     0          
T        Si     0.355750000000     0.600000000000     0.379166666667     0          
T        Si     0.359350000000     0.600000000000     0.595533333333     0          
T        Si     0.359100000000     0.600000000000     0.506966666667     0          
O        O      0.452100000000     0.649980000000     0.585966666667     0          
O        O      0.458700000000     0.750000000000     0.380800000000     0          
O        O      0.374600000000     0.650020000000     0.382833333333     0          
O        O      0.375000000000     0.650000000000     0.500000000000     0          
O        O      0.047900000000     0.649980000000     0.414033333333     0          
O        O      0.041300000000     0.750000000000     0.619200000000     0          
O        O      0.125400000000     0.650020000000     0.617166666667     0          
O        O      0.125000000000     0.650000000000     0.500000000000     0          
O        O      0.252250000000     0.700000000000     0.377100000000     0          
O        O      0.297900000000     0.650020000000     0.414033333333     0          
O        O      0.293800000000     0.700000000000     0.349666666667     0          
O        O      0.291300000000     0.750000000000     0.619200000000     0          
O        O      0.422000000000     0.700000000000     0.523666666667     0          
O        O      0.407650000000     0.700000000000     0.586500000000     0          
O        O      0.421700000000     0.700000000000     0.402633333333     0          
O        O      0.418700000000     0.700000000000     0.662333333333     0          
O        O      0.375400000000     0.649980000000     0.617166666667     0          
O        O      0.391900000000     0.700000000000     0.449266666667     0          
T        Si     0.285500000000     0.700000000000     0.388666666667     0          
T        Si     0.281050000000     0.700000000000     0.636100000000     0          
T        Si     0.433550000000     0.700000000000     0.570633333333     0          
T        Si     0.439450000000     0.700000000000     0.373300000000     0          
T        Si     0.394250000000     0.700000000000     0.620833333333     0          
T        Si     0.390650000000     0.700000000000     0.404466666667     0          
T        Si     0.390900000000     0.700000000000     0.493033333333     0          
O        O      0.247750000000     0.700000000000     0.622900000000     0          
O        O      0.202100000000     0.650020000000     0.585966666667     0          
O        O      0.206200000000     0.700000000000     0.650333333333     0          
O        O      0.208700000000     0.750000000000     0.380800000000     0          
O        O      0.078000000000     0.700000000000     0.476333333333     0          
O        O      0.092350000000     0.700000000000     0.413500000000     0          
O        O      0.078300000000     0.700000000000     0.597366666667     0          
O        O      0.081300000000     0.700000000000     0.337666666667     0          
O        O      0.124600000000     0.649980000000     0.382833333333     0          
O        O      0.108100000000     0.700000000000     0.550733333333     0          
T        Si     0.214500000000     0.700000000000     0.611333333333     0          
T        Si     0.218950000000     0.700000000000     0.363900000000     0          
T        Si     0.066450000000     0.700000000000     0.429366666667     0          
T        Si     0.060550000000     0.700000000000     0.626700000000     0          
T        Si     0.105750000000     0.700000000000     0.379166666667     0          
T        Si     0.109350000000     0.700000000000     0.595533333333     0          
T        Si     0.109100000000     0.700000000000     0.506966666667     0          
O        O      0.202100000000     0.749980000000     0.585966666667     0          
O        O      0.208700000000     0.650000000000     0.380800000000     0          
O        O      0.124600000000     0.750020000000     0.382833333333     0          
O        O      0.297900000000     0.749980000000     0.414033333333     0          
O        O      0.291300000000     0.650000000000     0.619200000000     0          
O        O      0.375400000000     0.750020000000     0.617166666667     0          
O        O      0.002250000000     0.600000000000     0.710433333333     0          
O        O      0.047900000000     0.750020000000     0.747366666667     0          
O        O      0.043800000000     0.600000000000     0.683000000000     0          
O        O      0.041300000000     0.650000000000     0.952533333333     0          
O        O      0.172000000000     0.600000000000     0.857000000000     0          
O        O      0.157650000000     0.600000000000     0.919833333333     0          
O        O      0.171700000000     0.600000000000     0.735966666667     0          
O        O      0.168700000000     0.600000000000     0.995666666667     0          
O        O      0.125400000000     0.749980000000     0.950500000000     0          
O        O      0.141900000000     0.600000000000     0.782600000000     0          
O        O      0.125000000000     0.750000000000     0.833333333333     0          
T        Si     0.035500000000     0.600000000000     0.722000000000     0          
T        Si     0.031050000000     0.600000000000     0.969433333333     0          
T        Si     0.183550000000     0.600000000000     0.903966666667     0          
T        Si     0.189450000000     0.600000000000     0.706633333333     0          
T        Si     0.144250000000     0.600000000000     0.954166666667     0          
T        Si     0.140650000000     0.600000000000     0.737800000000     0          
T        Si     0.140900000000     0.600000000000     0.826366666667     0          
O        O      0.497750000000     0.600000000000     0.956233333333     0          
O        O      0.452100000000     0.750020000000     0.919300000000     0          
O        O      0.456200000000     0.600000000000     0.983666666667     0          
O        O      0.458700000000     0.650000000000     0.714133333333     0          
O        O      0.328000000000     0.600000000000     0.809666666667     0          
O        O      0.342350000000     0.600000000000     0.746833333333     0          
O        O      0.328300000000     0.600000000000     0.930700000000     0          
O        O      0.331300000000     0.600000000000     0.671000000000     0          
O        O      0.374600000000     0.749980000000     0.716166666667     0          
O        O      0.358100000000     0.600000000000     0.884066666667     0          
O        O      0.375000000000     0.750000000000     0.833333333333     0          
T        Si     0.464500000000     0.600000000000     0.944666666667     0          
T        Si     0.468950000000     0.600000000000     0.697233333333     0          
T        Si     0.316450000000     0.600000000000     0.762700000000     0          
T        Si     0.310550000000     0.600000000000     0.960033333333     0          
T        Si     0.355750000000     0.600000000000     0.712500000000     0          
T        Si     0.359350000000     0.600000000000     0.928866666667     0          
T        Si     0.359100000000     0.600000000000     0.840300000000     0          
O        O      0.452100000000     0.649980000000     0.919300000000     0          
O        O      0.458700000000     0.750000000000     0.714133333333     0          
O        O      0.374600000000     0.650020000000     0.716166666667     0          
O        O      0.375000000000     0.650000000000     0.833333333333     0          
O        O      0.047900000000     0.649980000000     0.747366666667     0          
O        O      0.041300000000     0.750000000000     0.952533333333     0          
O        O      0.125400000000     0.650020000000     0.950500000000     0          
O        O      0.125000000000     0.650000000000     0.833333333333     0          
O        O      0.252250000000     0.700000000000     0.710433333333     0          
O        O      0.297900000000     0.650020000000     0.747366666667     0          
O        O      0.293800000000     0.700000000000     0.683000000000     0          
O        O      0.291300000000     0.750000000000     0.952533333333     0          
O        O      0.422000000000     0.700000000000     0.857000000000     0          
O        O      0.407650000000     0.700000000000     0.919833333333     0          
O        O      0.421700000000     0.700000000000     0.735966666667     0          
O        O      0.418700000000     0.700000000000     0.995666666667     0          
O        O      0.375400000000     0.649980000000     0.950500000000     0          
O        O      0.391900000000     0.700000000000     0.782600000000     0          
T        Si     0.285500000000     0.700000000000     0.722000000000     0          
T        Si     0.281050000000     0.700000000000     0.969433333333     0          
T        Si     0.433550000000     0.700000000000     0.903966666667     0          
T        Si     0.439450000000     0.700000000000     0.706633333333     0          
T        Si     0.394250000000     0.700000000000     0.954166666667     0          
T        Si     0.390650000000     0.700000000000     0.737800000000     0          
T        Si     0.390900000000     0.700000000000     0.826366666667     0          
O        O      0.247750000000     0.700000000000     0.956233333333     0          
O        O      0.202100000000     0.650020000000     0.919300000000     0          
O        O      0.206200000000     0.700000000000     0.983666666667     0          
O        O      0.208700000000     0.750000000000     0.714133333333     0          
O        O      0.078000000000     0.700000000000     0.809666666667     0          
O        O      0.092350000000     0.700000000000     0.746833333333     0          
O        O      0.078300000000     0.700000000000     0.930700000000     0          
O        O      0.081300000000     0.700000000000     0.671000000000     0          
O        O      0.124600000000     0.649980000000     0.716166666667     0          
O        O      0.108100000000     0.700000000000     0.884066666667     0          
T        Si     0.214500000000     0.700000000000     0.944666666667     0          
T        Si     0.218950000000     0.700000000000     0.697233333333     0          
T        Si     0.066450000000     0.700000000000     0.762700000000     0          
T        Si     0.060550000000     0.700000000000     0.960033333333     0          
T        Si     0.105750000000     0.700000000000     0.712500000000     0          
T        Si     0.109350000000     0.700000000000     0.928866666667     0          
T        Si     0.109100000000     0.700000000000     0.840300000000     0          
O        O      0.202100000000     0.749980000000     0.919300000000     0          
O        O      0.208700000000     0.650000000000     0.714133333333     0          
O        O      0.124600000000     0.750020000000     0.716166666667     0          
O        O      0.297900000000     0.749980000000     0.747366666667     0          
O        O      0.291300000000     0.650000000000     0.952533333333     0          
O        O      0.375400000000     0.750020000000     0.950500000000     0          
O        O      0.002250000000     0.800000000000     0.043766666667     0          
O        O      0.047900000000     0.950020000000     0.080700000000     0          
O        O      0.043800000000     0.800000000000     0.016333333333     0          
O        O      0.041300000000     0.850000000000     0.285866666667     0          
O        O      0.172000000000     0.800000000000     0.190333333333     0          
O        O      0.157650000000     0.800000000000     0.253166666667     0          
O        O      0.171700000000     0.800000000000     0.069300000000     0          
O        O      0.168700000000     0.800000000000     0.329000000000     0          
O        O      0.125400000000     0.949980000000     0.283833333333     0          
O        O      0.141900000000     0.800000000000     0.115933333333     0          
O        O      0.125000000000     0.950000000000     0.166666666667     0          
T        Si     0.035500000000     0.800000000000     0.055333333333     0          
T        Si     0.031050000000     0.800000000000     0.302766666667     0          
T        Si     0.183550000000     0.800000000000     0.237300000000     0          
T        Si     0.189450000000     0.800000000000     0.039966666667     0          
T        Si     0.144250000000     0.800000000000     0.287500000000     0          
T        Si     0.140650000000     0.800000000000     0.071133333333     0          
T        Si     0.140900000000     0.800000000000     0.159700000000     0          
O        O      0.497750000000     0.800000000000     0.289566666667     0          
O        O      0.452100000000     0.950020000000     0.252633333333     0          
O        O      0.456200000000     0.800000000000     0.317000000000     0          
O        O      0.458700000000     0.850000000000     0.047466666667     0          
O        O      0.328000000000     0.800000000000     0.143000000000     0          
O        O      0.342350000000     0.800000000000     0.080166666667     0          
O        O      0.328300000000     0.800000000000     0.264033333333     0          
O        O      0.331300000000     0.800000000000     0.004333333333     0          
O        O      0.374600000000     0.949980000000     0.049500000000     0          
O        O      0.358100000000     0.800000000000     0.217400000000     0          
O        O      0.375000000000     0.950000000000     0.166666666667     0          
T        Si     0.464500000000     0.800000000000     0.278000000000     0          
T        Si     0.468950000000     0.800000000000     0.030566666667     0          
T        Si     0.316450000000     0.800000000000     0.096033333333     0          
T        Si     0.310550000000     0.800000000000     0.293366666667     0          
T        Si     0.355750000000     0.800000000000     0.045833333333     0          
T        Si     0.359350000000     0.800000000000     0.262200000000     0          
T        Si     0.359100000000     0.800000000000     0.173633333333     0          
O        O      0.452100000000     0.849980000000     0.252633333333     0          
O        O      0.458700000000     0.950000000000     0.047466666667     0          
O        O      0.374600000000     0.850020000000     0.049500000000     0          
O        O      0.375000000000     0.850000000000     0.166666666667     0          
O        O      0.047900000000     0.849980000000     0.080700000000     0          
O        O      0.041300000000     0.950000000000     0.285866666667     0          
O        O      0.125400000000     0.850020000000     0.283833333333     0          
O        O      0.125000000000     0.850000000000     0.166666666667     0          
O        O      0.252250000000     0.900000000000     0.043766666667     0          
O        O      0.297900000000     0.850020000000     0.080700000000     0          
O        O      0.293800000000     0.900000000000     0.016333333333     0          
O        O      0.291300000000     0.950000000000     0.285866666667     0          
O        O      0.422000000000     0.900000000000     0.190333333333     0          
O        O      0.407650000000     0.900000000000     0.253166666667     0          
O        O      0.421700000000     0.900000000000     0.069300000000     0          
O        O      0.418700000000     0.900000000000     0.329000000000     0          
O        O      0.375400000000     0.849980000000     0.283833333333     0          
O        O      0.391900000000     0.900000000000     0.115933333333     0          
T        Si     0.285500000000     0.900000000000     0.055333333333     0          
T        Si     0.281050000000     0.900000000000     0.302766666667     0          
T        Si     0.433550000000     0.900000000000     0.237300000000     0          
T        Si     0.439450000000     0.900000000000     0.039966666667     0          
T        Si     0.394250000000     0.900000000000     0.287500000000     0          
T        Si     0.390650000000     0.900000000000     0.071133333333     0          
T        Si     0.390900000000     0.900000000000     0.159700000000     0          
O        O      0.247750000000     0.900000000000     0.289566666667     0          
O        O      0.202100000000     0.850020000000     0.252633333333     0          
O        O      0.206200000000     0.900000000000     0.317000000000     0          
O        O      0.208700000000     0.950000000000     0.047466666667     0          
O        O      0.078000000000     0.900000000000     0.143000000000     0          
O        O      0.092350000000     0.900000000000     0.080166666667     0          
O        O      0.078300000000     0.900000000000     0.264033333333     0          
O        O      0.081300000000     0.900000000000     0.004333333333     0          
O        O      0.124600000000     0.849980000000     0.049500000000     0          
O        O      0.108100000000     0.900000000000     0.217400000000     0          
T        Si     0.214500000000     0.900000000000     0.278000000000     0          
T        Si     0.218950000000     0.900000000000     0.030566666667     0          
T        Si     0.066450000000     0.900000000000     0.096033333333     0          
T        Si     0.060550000000     0.900000000000     0.293366666667     0          
T        Si     0.105750000000     0.900000000000     0.045833333333     0          
T        Si     0.109350000000     0.900000000000     0.262200000000     0          
T        Si     0.109100000000     0.900000000000     0.173633333333     0          
O        O      0.202100000000     0.949980000000     0.252633333333     0          
O        O      0.208700000000     0.850000000000     0.047466666667     0          
O        O      0.124600000000     0.950020000000     0.049500000000     0          
O        O      0.297900000000     0.949980000000     0.080700000000     0          
O        O      0.291300000000     0.850000000000     0.285866666667     0          
O        O      0.375400000000     0.950020000000     0.283833333333     0          
O        O      0.002250000000     0.800000000000     0.377100000000     0          
O        O      0.047900000000     0.950020000000     0.414033333333     0          
O        O      0.043800000000     0.800000000000     0.349666666667     0          
O        O      0.041300000000     0.850000000000     0.619200000000     0          
O        O      0.172000000000     0.800000000000     0.523666666667     0          
O        O      0.157650000000     0.800000000000     0.586500000000     0          
O        O      0.171700000000     0.800000000000     0.402633333333     0          
O        O      0.168700000000     0.800000000000     0.662333333333     0          
O        O      0.125400000000     0.949980000000     0.617166666667     0          
O        O      0.141900000000     0.800000000000     0.449266666667     0          
O        O      0.125000000000     0.950000000000     0.500000000000     0          
T        Si     0.035500000000     0.800000000000     0.388666666667     0          
T        Si     0.031050000000     0.800000000000     0.636100000000     0          
T        Si     0.183550000000     0.800000000000     0.570633333333     0          
T        Si     0.189450000000     0.800000000000     0.373300000000     0          
T        Si     0.144250000000     0.800000000000     0.620833333333     0          
T        Si     0.140650000000     0.800000000000     0.404466666667     0          
T        Si     0.140900000000     0.800000000000     0.493033333333     0          
O        O      0.497750000000     0.800000000000     0.622900000000     0          
O        O      0.452100000000     0.950020000000     0.585966666667     0          
O        O      0.456200000000     0.800000000000     0.650333333333     0          
O        O      0.458700000000     0.850000000000     0.380800000000     0          
O        O      0.328000000000     0.800000000000     0.476333333333     0          
O        O      0.342350000000     0.800000000000     0.413500000000     0          
O        O      0.328300000000     0.800000000000     0.597366666667     0          
O        O      0.331300000000     0.800000000000     0.337666666667     0          
O        O      0.374600000000     0.949980000000     0.382833333333     0          
O        O      0.358100000000     0.800000000000     0.550733333333     0          
O        O      0.375000000000     0.950000000000     0.500000000000     0          
T        Si     0.464500000000     0.800000000000     0.611333333333     0          
T        Si     0.468950000000     0.800000000000     0.363900000000     0          
T        Si     0.316450000000     0.800000000000     0.429366666667     0          
T        Si     0.310550000000     0.800000000000     0.626700000000     0          
T        Si     0.355750000000     0.800000000000     0.379166666667     0          
T        Si     0.359350000000     0.800000000000     0.595533333333     0          
T        Si     0.359100000000     0.800000000000     0.506966666667     0          
O        O      0.452100000000     0.849980000000     0.585966666667     0          
O        O      0.458700000000     0.950000000000     0.380800000000     0          
O        O      0.374600000000     0.850020000000     0.382833333333     0          
O        O      0.375000000000     0.850000000000     0.500000000000     0          
O        O      0.047900000000     0.849980000000     0.414033333333     0          
O        O      0.041300000000     0.950000000000     0.619200000000     0          
O        O      0.125400000000     0.850020000000     0.617166666667     0          
O        O      0.125000000000     0.850000000000     0.500000000000     0          
O        O      0.252250000000     0.900000000000     0.377100000000     0          
O        O      0.297900000000     0.850020000000     0.414033333333     0          
O        O      0.293800000000     0.900000000000     0.349666666667     0          
O        O      0.291300000000     0.950000000000     0.619200000000     0          
O        O      0.422000000000     0.900000000000     0.523666666667     0          
O        O      0.407650000000     0.900000000000     0.586500000000     0          
O        O      0.421700000000     0.900000000000     0.402633333333     0          
O        O      0.418700000000     0.900000000000     0.662333333333     0          
O        O      0.375400000000     0.849980000000     0.617166666667     0          
O        O      0.391900000000     0.900000000000     0.449266666667     0          
T        Si     0.285500000000     0.900000000000     0.388666666667     0          
T        Si     0.281050000000     0.900000000000     0.636100000000     0          
T        Si     0.433550000000     0.900000000000     0.570633333333     0          
T        Si     0.439450000000     0.900000000000     0.373300000000     0          
T        Si     0.394250000000     0.900000000000     0.620833333333     0          
T        Si     0.390650000000     0.900000000000     0.404466666667     0          
T        Si     0.390900000000     0.900000000000     0.493033333333     0          
O        O      0.247750000000     0.900000000000     0.622900000000     0          
O        O      0.202100000000     0.850020000000     0.585966666667     0          
O        O      0.206200000000     0.900000000000     0.650333333333     0          
O        O      0.208700000000     0.950000000000     0.380800000000     0          
O        O      0.078000000000     0.900000000000     0.476333333333     0          
O        O      0.092350000000     0.900000000000     0.413500000000     0          
O        O      0.078300000000     0.900000000000     0.597366666667     0          
O        O      0.081300000000     0.900000000000     0.337666666667     0          
O        O      0.124600000000     0.849980000000     0.382833333333     0          
O        O      0.108100000000     0.900000000000     0.550733333333     0          
T        Si     0.214500000000     0.900000000000     0.611333333333     0          
T        Si     0.218950000000     0.900000000000     0.363900000000     0          
T        Si     0.066450000000     0.900000000000     0.429366666667     0          
T        Si     0.060550000000     0.900000000000     0.626700000000     0          
T        Si     0.105750000000     0.900000000000     0.379166666667     0          
T        Si     0.109350000000     0.900000000000     0.595533333333     0          
T        Si     0.109100000000     0.900000000000     0.506966666667     0          
O        O      0.202100000000     0.949980000000     0.585966666667     0          
O        O      0.208700000000     0.850000000000     0.380800000000     0          
O        O      0.124600000000     0.950020000000     0.382833333333     0          
O        O      0.297900000000     0.949980000000     0.414033333333     0          
O        O      0.291300000000     0.850000000000     0.619200000000     0          
O        O      0.375400000000     0.950020000000     0.617166666667     0          
O        O      0.002250000000     0.800000000000     0.710433333333     0          
O        O      0.047900000000     0.950020000000     0.747366666667     0          
O        O      0.043800000000     0.800000000000     0.683000000000     0          
O        O      0.041300000000     0.850000000000     0.952533333333     0          
O        O      0.172000000000     0.800000000000     0.857000000000     0          
O        O      0.157650000000     0.800000000000     0.919833333333     0          
O        O      0.171700000000     0.800000000000     0.735966666667     0          
O        O      0.168700000000     0.800000000000     0.995666666667     0          
O        O      0.125400000000     0.949980000000     0.950500000000     0          
O        O      0.141900000000     0.800000000000     0.782600000000     0          
O        O      0.125000000000     0.950000000000     0.833333333333     0          
T        Si     0.035500000000     0.800000000000     0.722000000000     0          
T        Si     0.031050000000     0.800000000000     0.969433333333     0          
T        Si     0.183550000000     0.800000000000     0.903966666667     0          
T        Si     0.189450000000     0.800000000000     0.706633333333     0          
T        Si     0.144250000000     0.800000000000     0.954166666667     0          
T        Si     0.140650000000     0.800000000000     0.737800000000     0          
T        Si     0.140900000000     0.800000000000     0.826366666667     0          
O        O      0.497750000000     0.800000000000     0.956233333333     0          
O        O      0.452100000000     0.950020000000     0.919300000000     0          
O        O      0.456200000000     0.800000000000     0.983666666667     0          
O        O      0.458700000000     0.850000000000     0.714133333333     0          
O        O      0.328000000000     0.800000000000     0.809666666667     0          
O        O      0.342350000000     0.800000000000     0.746833333333     0          
O        O      0.328300000000     0.800000000000     0.930700000000     0          
O        O      0.331300000000     0.800000000000     0.671000000000     0          
O        O      0.374600000000     0.949980000000     0.716166666667     0          
O        O      0.358100000000     0.800000000000     0.884066666667     0          
O        O      0.375000000000     0.950000000000     0.833333333333     0          
T        Si     0.464500000000     0.800000000000     0.944666666667     0          
T        Si     0.468950000000     0.800000000000     0.697233333333     0          
T        Si     0.316450000000     0.800000000000     0.762700000000     0          
T        Si     0.310550000000     0.800000000000     0.960033333333     0          
T        Si     0.355750000000     0.800000000000     0.712500000000     0          
T        Si     0.359350000000     0.800000000000     0.928866666667     0          
T        Si     0.359100000000     0.800000000000     0.840300000000     0          
O        O      0.452100000000     0.849980000000     0.919300000000     0          
O        O      0.458700000000     0.950000000000     0.714133333333     0          
O        O      0.374600000000     0.850020000000     0.716166666667     0          
O        O      0.375000000000     0.850000000000     0.833333333333     0          
O        O      0.047900000000     0.849980000000     0.747366666667     0          
O        O      0.041300000000     0.950000000000     0.952533333333     0          
O        O      0.125400000000     0.850020000000     0.950500000000     0          
O        O      0.125000000000     0.850000000000     0.833333333333     0          
O        O      0.252250000000     0.900000000000     0.710433333333     0          
O        O      0.297900000000     0.850020000000     0.747366666667     0          
O        O      0.293800000000     0.900000000000     0.683000000000     0          
O        O      0.291300000000     0.950000000000     0.952533333333     0          
O        O      0.422000000000     0.900000000000     0.857000000000     0          
O        O      0.407650000000     0.900000000000     0.919833333333     0          
O        O      0.421700000000     0.900000000000     0.735966666667     0          
O        O      0.418700000000     0.900000000000     0.995666666667     0          
O        O      0.375400000000     0.849980000000     0.950500000000     0          
O        O      0.391900000000     0.900000000000     0.782600000000     0          
T        Si     0.285500000000     0.900000000000     0.722000000000     0          
T        Si     0.281050000000     0.900000000000     0.969433333333     0          
T        Si     0.433550000000     0.900000000000     0.903966666667     0          
T        Si     0.439450000000     0.900000000000     0.706633333333     0          
T        Si     0.394250000000     0.900000000000     0.954166666667     0          
T        Si     0.390650000000     0.900000000000     0.737800000000     0          
T        Si     0.390900000000     0.900000000000     0.826366666667     0          
O        O      0.247750000000     0.900000000000     0.956233333333     0          
O        O      0.202100000000     0.850020000000     0.919300000000     0          
O        O      0.206200000000     0.900000000000     0.983666666667     0          
O        O      0.208700000000     0.950000000000     0.714133333333     0          
O        O      0.078000000000     0.900000000000     0.809666666667     0          
O        O      0.092350000000     0.900000000000     0.746833333333     0          
O        O      0.078300000000     0.900000000000     0.930700000000     0          
O        O      0.081300000000     0.900000000000     0.671000000000     0          
O        O      0.124600000000     0.849980000000     0.716166666667     0          
O        O      0.108100000000     0.900000000000     0.884066666667     0          
T        Si     0.214500000000     0.900000000000     0.944666666667     0          
T        Si     0.218950000000     0.900000000000     0.697233333333     0          
T        Si     0.066450000000     0.900000000000     0.762700000000     0          
T        Si     0.060550000000     0.900000000000     0.960033333333     0          
T        Si     0.105750000000     0.900000000000     0.712500000000     0          
T        Si     0.109350000000     0.900000000000     0.928866666667     0          
T        Si     0.109100000000     0.900000000000     0.840300000000     0          
O        O      0.202100000000     0.949980000000     0.919300000000     0          
O        O      0.208700000000     0.850000000000     0.714133333333     0          
O        O      0.124600000000     0.950020000000     0.716166666667     0          
O        O      0.297900000000     0.949980000000     0.747366666667     0          
O        O      0.291300000000     0.850000000000     0.952533333333     0          
O        O      0.375400000000     0.950020000000     0.950500000000     0          
O        O      0.502250000000     0.000000000000     0.043766666667     0          
O        O      0.547900000000     0.150020000000     0.080700000000     0          
O        O      0.543800000000     0.000000000000     0.016333333333     0          
O        O      0.541300000000     0.050000000000     0.285866666667     0          
O        O      0.672000000000     0.000000000000     0.190333333333     0          
O        O      0.657650000000     0.000000000000     0.253166666667     0          
O        O      0.671700000000     0.000000000000     0.069300000000     0          
O        O      0.668700000000     0.000000000000     0.329000000000     0          
O        O      0.625400000000     0.149980000000     0.283833333333     0          
O        O      0.641900000000     0.000000000000     0.115933333333     0          
O        O      0.625000000000     0.150000000000     0.166666666667     0          
T        Si     0.535500000000     0.000000000000     0.055333333333     0          
T        Si     0.531050000000     0.000000000000     0.302766666667     0          
T        Si     0.683550000000     0.000000000000     0.237300000000     0          
T        Si     0.689450000000     0.000000000000     0.039966666667     0          
T        Si     0.644250000000     0.000000000000     0.287500000000     0          
T        Si     0.640650000000     0.000000000000     0.071133333333     0          
T        Si     0.640900000000     0.000000000000     0.159700000000     0          
O        O      0.997750000000     0.000000000000     0.289566666667     0          
O        O      0.952100000000     0.150020000000     0.252633333333     0          
O        O      0.956200000000     0.000000000000     0.317000000000     0          
O        O      0.958700000000     0.050000000000     0.047466666667     0          
O        O      0.828000000000     0.000000000000     0.143000000000     0          
O        O      0.842350000000     0.000000000000     0.080166666667     0          
O        O      0.828300000000     0.000000000000     0.264033333333     0          
O        O      0.831300000000     0.000000000000     0.004333333333     0          
O        O      0.874600000000     0.149980000000     0.049500000000     0          
O        O      0.858100000000     0.000000000000     0.217400000000     0          
O        O      0.875000000000     0.150000000000     0.166666666667     0          
T        Si     0.964500000000     0.000000000000     0.278000000000     0          
T        Si     0.968950000000     0.000000000000     0.030566666667     0          
T        Si     0.816450000000     0.000000000000     0.096033333333     0          
T        Si     0.810550000000     0.000000000000     0.293366666667     0          
T        Si     0.855750000000     0.000000000000     0.045833333333     0          
T        Si     0.859350000000     0.000000000000     0.262200000000     0          
T        Si     0.859100000000     0.000000000000     0.173633333333     0          
O        O      0.952100000000     0.049980000000     0.252633333333     0          
O        O      0.958700000000     0.150000000000     0.047466666667     0          
O        O      0.874600000000     0.050020000000     0.049500000000     0          
O        O      0.875000000000     0.050000000000     0.166666666667     0          
O        O      0.547900000000     0.049980000000     0.080700000000     0          
O        O      0.541300000000     0.150000000000     0.285866666667     0          
O        O      0.625400000000     0.050020000000     0.283833333333     0          
O        O      0.625000000000     0.050000000000     0.166666666667     0          
O        O      0.752250000000     0.100000000000     0.043766666667     0          
O        O      0.797900000000     0.050020000000     0.080700000000     0          
O        O      0.793800000000     0.100000000000     0.016333333333     0          
O        O      0.791300000000     0.150000000000     0.285866666667     0          
O        O      0.922000000000     0.100000000000     0.190333333333     0          
O        O      0.907650000000     0.100000000000     0.253166666667     0          
O        O      0.921700000000     0.100000000000     0.069300000000     0          
O        O      0.918700000000     0.100000000000     0.329000000000     0          
O        O      0.875400000000     0.049980000000     0.283833333333     0          
O        O      0.891900000000     0.100000000000     0.115933333333     0          
T        Si     0.785500000000     0.100000000000     0.055333333333     0          
T        Si     0.781050000000     0.100000000000     0.302766666667     0          
T        Si     0.933550000000     0.100000000000     0.237300000000     0          
T        Si     0.939450000000     0.100000000000     0.039966666667     0          
T        Si     0.894250000000     0.100000000000     0.287500000000     0          
T        Si     0.890650000000     0.100000000000     0.071133333333     0          
T        Si     0.890900000000     0.100000000000     0.159700000000     0          
O        O      0.747750000000     0.100000000000     0.289566666667     0          
O        O      0.702100000000     0.050020000000     0.252633333333     0          
O        O      0.706200000000     0.100000000000     0.317000000000     0          
O        O      0.708700000000     0.150000000000     0.047466666667     0          
O        O      0.578000000000     0.100000000000     0.143000000000     0          
O        O      0.592350000000     0.100000000000     0.080166666667     0          
O        O      0.578300000000     0.100000000000     0.264033333333     0          
O        O      0.581300000000     0.100000000000     0.004333333333     0          
O        O      0.624600000000     0.049980000000     0.049500000000     0          
O        O      0.608100000000     0.100000000000     0.217400000000     0          
T        Si     0.714500000000     0.100000000000     0.278000000000     0          
T        Si     0.718950000000     0.100000000000     0.030566666667     0          
T        Si     0.566450000000     0.100000000000     0.096033333333     0          
T        Si     0.560550000000     0.100000000000     0.293366666667     0          
T        Si     0.605750000000     0.100000000000     0.045833333333     0          
T        Si     0.609350000000     0.100000000000     0.262200000000     0          
T        Si     0.609100000000     0.100000000000     0.173633333333     0          
O        O      0.702100000000     0.149980000000     0.252633333333     0          
O        O      0.708700000000     0.050000000000     0.047466666667     0          
O        O      0.624600000000     0.150020000000     0.049500000000     0          
O        O      0.797900000000     0.149980000000     0.080700000000     0          
O        O      0.791300000000     0.050000000000     0.285866666667     0          
O        O      0.875400000000     0.150020000000     0.283833333333     0          
O        O      0.502250000000     0.000000000000     0.377100000000     0          
O        O      0.547900000000     0.150020000000     0.414033333333     0          
O        O      0.543800000000     0.000000000000     0.349666666667     0          
O        O      0.541300000000     0.050000000000     0.619200000000     0          
O        O      0.672000000000     0.000000000000     0.523666666667     0          
O        O      0.657650000000     0.000000000000     0.586500000000     0          
O        O      0.671700000000     0.000000000000     0.402633333333     0          
O        O      0.668700000000     0.000000000000     0.662333333333     0          
O        O      0.625400000000     0.149980000000     0.617166666667     0          
O        O      0.641900000000     0.000000000000     0.449266666667     0          
O        O      0.625000000000     0.150000000000     0.500000000000     0          
T        Si     0.535500000000     0.000000000000     0.388666666667     0          
T        Si     0.531050000000     0.000000000000     0.636100000000     0          
T        Si     0.683550000000     0.000000000000     0.570633333333     0          
T        Si     0.689450000000     0.000000000000     0.373300000000     0          
T        Si     0.644250000000     0.000000000000     0.620833333333     0          
T        Si     0.640650000000     0.000000000000     0.404466666667     0          
T        Si     0.640900000000     0.000000000000     0.493033333333     0          
O        O      0.997750000000     0.000000000000     0.622900000000     0          
O        O      0.952100000000     0.150020000000     0.585966666667     0          
O        O      0.956200000000     0.000000000000     0.650333333333     0          
O        O      0.958700000000     0.050000000000     0.380800000000     0          
O        O      0.828000000000     0.000000000000     0.476333333333     0          
O        O      0.842350000000     0.000000000000     0.413500000000     0          
O        O      0.828300000000     0.000000000000     0.597366666667     0          
O        O      0.831300000000     0.000000000000     0.337666666667     0          
O        O      0.874600000000     0.149980000000     0.382833333333     0          
O        O      0.858100000000     0.000000000000     0.550733333333     0          
O        O      0.875000000000     0.150000000000     0.500000000000     0          
T        Si     0.964500000000     0.000000000000     0.611333333333     0          
T        Si     0.968950000000     0.000000000000     0.363900000000     0          
T        Si     0.816450000000     0.000000000000     0.429366666667     0          
T        Si     0.810550000000     0.000000000000     0.626700000000     0          
T        Si     0.855750000000     0.000000000000     0.379166666667     0          
T        Si     0.859350000000     0.000000000000     0.595533333333     0          
T        Si     0.859100000000     0.000000000000     0.506966666667     0          
O        O      0.952100000000     0.049980000000     0.585966666667     0          
O        O      0.958700000000     0.150000000000     0.380800000000     0          
O        O      0.874600000000     0.050020000000     0.382833333333     0          
O        O      0.875000000000     0.050000000000     0.500000000000     0          
O        O      0.547900000000     0.049980000000     0.414033333333     0          
O        O      0.541300000000     0.150000000000     0.619200000000     0          
O        O      0.625400000000     0.050020000000     0.617166666667     0          
O        O      0.625000000000     0.050000000000     0.500000000000     0          
O        O      0.752250000000     0.100000000000     0.377100000000     0          
O        O      0.797900000000     0.050020000000     0.414033333333     0          
O        O      0.793800000000     0.100000000000     0.349666666667     0          
O        O      0.791300000000     0.150000000000     0.619200000000     0          
O        O      0.922000000000     0.100000000000     0.523666666667     0          
O        O      0.907650000000     0.100000000000     0.586500000000     0          
O        O      0.921700000000     0.100000000000     0.402633333333     0          
O        O      0.918700000000     0.100000000000     0.662333333333     0          
O        O      0.875400000000     0.049980000000     0.617166666667     0          
O        O      0.891900000000     0.100000000000     0.449266666667     0          
T        Si     0.785500000000     0.100000000000     0.388666666667     0          
T        Si     0.781050000000     0.100000000000     0.636100000000     0          
T        Si     0.933550000000     0.100000000000     0.570633333333     0          
T        Si     0.939450000000     0.100000000000     0.373300000000     0          
T        Si     0.894250000000     0.100000000000     0.620833333333     0          
T        Si     0.890650000000     0.100000000000     0.404466666667     0          
T        Si     0.890900000000     0.100000000000     0.493033333333     0          
O        O      0.747750000000     0.100000000000     0.622900000000     0          
O        O      0.702100000000     0.050020000000     0.585966666667     0          
O        O      0.706200000000     0.100000000000     0.650333333333     0          
O        O      0.708700000000     0.150000000000     0.380800000000     0          
O        O      0.578000000000     0.100000000000     0.476333333333     0          
O        O      0.592350000000     0.100000000000     0.413500000000     0          
O        O      0.578300000000     0.100000000000     0.597366666667     0          
O        O      0.581300000000     0.100000000000     0.337666666667     0          
O        O      0.624600000000     0.049980000000     0.382833333333     0          
O        O      0.608100000000     0.100000000000     0.550733333333     0          
T        Si     0.714500000000     0.100000000000     0.611333333333     0          
T        Si     0.718950000000     0.100000000000     0.363900000000     0          
T        Si     0.566450000000     0.100000000000     0.429366666667     0          
T        Si     0.560550000000     0.100000000000     0.626700000000     0          
T        Si     0.605750000000     0.100000000000     0.379166666667     0          
T        Si     0.609350000000     0.100000000000     0.595533333333     0          
T        Si     0.609100000000     0.100000000000     0.506966666667     0          
O        O      0.702100000000     0.149980000000     0.585966666667     0          
O        O      0.708700000000     0.050000000000     0.380800000000     0          
O        O      0.624600000000     0.150020000000     0.382833333333     0          
O        O      0.797900000000     0.149980000000     0.414033333333     0          
O        O      0.791300000000     0.050000000000     0.619200000000     0          
O        O      0.875400000000     0.150020000000     0.617166666667     0          
O        O      0.502250000000     0.000000000000     0.710433333333     0          
O        O      0.547900000000     0.150020000000     0.747366666667     0          
O        O      0.543800000000     0.000000000000     0.683000000000     0          
O        O      0.541300000000     0.050000000000     0.952533333333     0          
O        O      0.672000000000     0.000000000000     0.857000000000     0          
O        O      0.657650000000     0.000000000000     0.919833333333     0          
O        O      0.671700000000     0.000000000000     0.735966666667     0          
O        O      0.668700000000     0.000000000000     0.995666666667     0          
O        O      0.625400000000     0.149980000000     0.950500000000     0          
O        O      0.641900000000     0.000000000000     0.782600000000     0          
O        O      0.625000000000     0.150000000000     0.833333333333     0          
T        Si     0.535500000000     0.000000000000     0.722000000000     0          
T        Si     0.531050000000     0.000000000000     0.969433333333     0          
T        Si     0.683550000000     0.000000000000     0.903966666667     0          
T        Si     0.689450000000     0.000000000000     0.706633333333     0          
T        Si     0.644250000000     0.000000000000     0.954166666667     0          
T        Si     0.640650000000     0.000000000000     0.737800000000     0          
T        Si     0.640900000000     0.000000000000     0.826366666667     0          
O        O      0.997750000000     0.000000000000     0.956233333333     0          
O        O      0.952100000000     0.150020000000     0.919300000000     0          
O        O      0.956200000000     0.000000000000     0.983666666667     0          
O        O      0.958700000000     0.050000000000     0.714133333333     0          
O        O      0.828000000000     0.000000000000     0.809666666667     0          
O        O      0.842350000000     0.000000000000     0.746833333333     0          
O        O      0.828300000000     0.000000000000     0.930700000000     0          
O        O      0.831300000000     0.000000000000     0.671000000000     0          
O        O      0.874600000000     0.149980000000     0.716166666667     0          
O        O      0.858100000000     0.000000000000     0.884066666667     0          
O        O      0.875000000000     0.150000000000     0.833333333333     0          
T        Si     0.964500000000     0.000000000000     0.944666666667     0          
T        Si     0.968950000000     0.000000000000     0.697233333333     0          
T        Si     0.816450000000     0.000000000000     0.762700000000     0          
T        Si     0.810550000000     0.000000000000     0.960033333333     0          
T        Si     0.855750000000     0.000000000000     0.712500000000     0          
T        Si     0.859350000000     0.000000000000     0.928866666667     0          
T        Si     0.859100000000     0.000000000000     0.840300000000     0          
O        O      0.952100000000     0.049980000000     0.919300000000     0          
O        O      0.958700000000     0.150000000000     0.714133333333     0          
O        O      0.874600000000     0.050020000000     0.716166666667     0          
O        O      0.875000000000     0.050000000000     0.833333333333     0          
O        O      0.547900000000     0.049980000000     0.747366666667     0          
O        O      0.541300000000     0.150000000000     0.952533333333     0          
O        O      0.625400000000     0.050020000000     0.950500000000     0          
O        O      0.625000000000     0.050000000000     0.833333333333     0          
O        O      0.752250000000     0.100000000000     0.710433333333     0          
O        O      0.797900000000     0.050020000000     0.747366666667     0          
O        O      0.793800000000     0.100000000000     0.683000000000     0          
O        O      0.791300000000     0.150000000000     0.952533333333     0          
O        O      0.922000000000     0.100000000000     0.857000000000     0          
O        O      0.907650000000     0.100000000000     0.919833333333     0          
O        O      0.921700000000     0.100000000000     0.735966666667     0          
O        O      0.918700000000     0.100000000000     0.995666666667     0          
O        O      0.875400000000     0.049980000000     0.950500000000     0          
O        O      0.891900000000     0.100000000000     0.782600000000     0          
T        Si     0.785500000000     0.100000000000     0.722000000000     0          
T        Si     0.781050000000     0.100000000000     0.969433333333     0          
T        Si     0.933550000000     0.100000000000     0.903966666667     0          
T        Si     0.939450000000     0.100000000000     0.706633333333     0          
T        Si     0.894250000000     0.100000000000     0.954166666667     0          
T        Si     0.890650000000     0.100000000000     0.737800000000     0          
T        Si     0.890900000000     0.100000000000     0.826366666667     0          
O        O      0.747750000000     0.100000000000     0.956233333333     0          
O        O      0.702100000000     0.050020000000     0.919300000000     0          
O        O      0.706200000000     0.100000000000     0.983666666667     0          
O        O      0.708700000000     0.150000000000     0.714133333333     0          
O        O      0.578000000000     0.100000000000     0.809666666667     0          
O        O      0.592350000000     0.100000000000     0.746833333333     0          
O        O      0.578300000000     0.100000000000     0.930700000000     0          
O        O      0.581300000000     0.100000000000     0.671000000000     0          
O        O      0.624600000000     0.049980000000     0.716166666667     0          
O        O      0.608100000000     0.100000000000     0.884066666667     0          
T        Si     0.714500000000     0.100000000000     0.944666666667     0          
T        Si     0.718950000000     0.100000000000     0.697233333333     0          
T        Si     0.566450000000     0.100000000000     0.762700000000     0          
T        Si     0.560550000000     0.100000000000     0.960033333333     0          
T        Si     0.605750000000     0.100000000000     0.712500000000     0          
T        Si     0.609350000000     0.100000000000     0.928866666667     0          
T        Si     0.609100000000     0.100000000000     0.840300000000     0          
O        O      0.702100000000     0.149980000000     0.919300000000     0          
O        O      0.708700000000     0.050000000000     0.714133333333     0          
O        O      0.624600000000     0.150020000000     0.716166666667     0          
O        O      0.797900000000     0.149980000000     0.747366666667     0          
O        O      0.791300000000     0.050000000000     0.952533333333     0          
O        O      0.875400000000     0.150020000000     0.950500000000     0          
O        O      0.502250000000     0.200000000000     0.043766666667     0          
O        O      0.547900000000     0.350020000000     0.080700000000     0          
O        O      0.543800000000     0.200000000000     0.016333333333     0          
O        O      0.541300000000     0.250000000000     0.285866666667     0          
O        O      0.672000000000     0.200000000000     0.190333333333     0          
O        O      0.657650000000     0.200000000000     0.253166666667     0          
O        O      0.671700000000     0.200000000000     0.069300000000     0          
O        O      0.668700000000     0.200000000000     0.329000000000     0          
O        O      0.625400000000     0.349980000000     0.283833333333     0          
O        O      0.641900000000     0.200000000000     0.115933333333     0          
O        O      0.625000000000     0.350000000000     0.166666666667     0          
T        Si     0.535500000000     0.200000000000     0.055333333333     0          
T        Si     0.531050000000     0.200000000000     0.302766666667     0          
T        Si     0.683550000000     0.200000000000     0.237300000000     0          
T        Si     0.689450000000     0.200000000000     0.039966666667     0          
T        Si     0.644250000000     0.200000000000     0.287500000000     0          
T        Si     0.640650000000     0.200000000000     0.071133333333     0          
T        Si     0.640900000000     0.200000000000     0.159700000000     0          
O        O      0.997750000000     0.200000000000     0.289566666667     0          
O        O      0.952100000000     0.350020000000     0.252633333333     0          
O        O      0.956200000000     0.200000000000     0.317000000000     0          
O        O      0.958700000000     0.250000000000     0.047466666667     0          
O        O      0.828000000000     0.200000000000     0.143000000000     0          
O        O      0.842350000000     0.200000000000     0.080166666667     0          
O        O      0.828300000000     0.200000000000     0.264033333333     0          
O        O      0.831300000000     0.200000000000     0.004333333333     0          
O        O      0.874600000000     0.349980000000     0.049500000000     0          
O        O      0.858100000000     0.200000000000     0.217400000000     0          
O        O      0.875000000000     0.350000000000     0.166666666667     0          
T        Si     0.964500000000     0.200000000000     0.278000000000     0          
T        Si     0.968950000000     0.200000000000     0.030566666667     0          
T        Si     0.816450000000     0.200000000000     0.096033333333     0          
T        Si     0.810550000000     0.200000000000     0.293366666667     0          
T        Si     0.855750000000     0.200000000000     0.045833333333     0          
T        Si     0.859350000000     0.200000000000     0.262200000000     0          
T        Si     0.859100000000     0.200000000000     0.173633333333     0          
O        O      0.952100000000     0.249980000000     0.252633333333     0          
O        O      0.958700000000     0.350000000000     0.047466666667     0          
O        O      0.874600000000     0.250020000000     0.049500000000     0          
O        O      0.875000000000     0.250000000000     0.166666666667     0          
O        O      0.547900000000     0.249980000000     0.080700000000     0          
O        O      0.541300000000     0.350000000000     0.285866666667     0          
O        O      0.625400000000     0.250020000000     0.283833333333     0          
O        O      0.625000000000     0.250000000000     0.166666666667     0          
O        O      0.752250000000     0.300000000000     0.043766666667     0          
O        O      0.797900000000     0.250020000000     0.080700000000     0          
O        O      0.793800000000     0.300000000000     0.016333333333     0          
O        O      0.791300000000     0.350000000000     0.285866666667     0          
O        O      0.922000000000     0.300000000000     0.190333333333     0          
O        O      0.907650000000     0.300000000000     0.253166666667     0          
O        O      0.921700000000     0.300000000000     0.069300000000     0          
O        O      0.918700000000     0.300000000000     0.329000000000     0          
O        O      0.875400000000     0.249980000000     0.283833333333     0          
O        O      0.891900000000     0.300000000000     0.115933333333     0          
T        Si     0.785500000000     0.300000000000     0.055333333333     0          
T        Si     0.781050000000     0.300000000000     0.302766666667     0          
T        Si     0.933550000000     0.300000000000     0.237300000000     0          
T        Si     0.939450000000     0.300000000000     0.039966666667     0          
T        Si     0.894250000000     0.300000000000     0.287500000000     0          
T        Si     0.890650000000     0.300000000000     0.071133333333     0          
T        Si     0.890900000000     0.300000000000     0.159700000000     0          
O        O      0.747750000000     0.300000000000     0.289566666667     0          
O        O      0.702100000000     0.250020000000     0.252633333333     0          
O        O      0.706200000000     0.300000000000     0.317000000000     0          
O        O      0.708700000000     0.350000000000     0.047466666667     0          
O        O      0.578000000000     0.300000000000     0.143000000000     0          
O        O      0.592350000000     0.300000000000     0.080166666667     0          
O        O      0.578300000000     0.300000000000     0.264033333333     0          
O        O      0.581300000000     0.300000000000     0.004333333333     0          
O        O      0.624600000000     0.249980000000     0.049500000000     0          
O        O      0.608100000000     0.300000000000     0.217400000000     0          
T        Si     0.714500000000     0.300000000000     0.278000000000     0          
T        Si     0.718950000000     0.300000000000     0.030566666667     0          
T        Si     0.566450000000     0.300000000000     0.096033333333     0          
T        Si     0.560550000000     0.300000000000     0.293366666667     0          
T        Si     0.605750000000     0.300000000000     0.045833333333     0          
T        Si     0.609350000000     0.300000000000     0.262200000000     0          
T        Si     0.609100000000     0.300000000000     0.173633333333     0          
O        O      0.702100000000     0.349980000000     0.252633333333     0          
O        O      0.708700000000     0.250000000000     0.047466666667     0          
O        O      0.624600000000     0.350020000000     0.049500000000     0          
O        O      0.797900000000     0.349980000000     0.080700000000     0          
O        O      0.791300000000     0.250000000000     0.285866666667     0          
O        O      0.875400000000     0.350020000000     0.283833333333     0          
O        O      0.502250000000     0.200000000000     0.377100000000     0          
O        O      0.547900000000     0.350020000000     0.414033333333     0          
O        O      0.543800000000     0.200000000000     0.349666666667     0          
O        O      0.541300000000     0.250000000000     0.619200000000     0          
O        O      0.672000000000     0.200000000000     0.523666666667     0          
O        O      0.657650000000     0.200000000000     0.586500000000     0          
O        O      0.671700000000     0.200000000000     0.402633333333     0          
O        O      0.668700000000     0.200000000000     0.662333333333     0          
O        O      0.625400000000     0.349980000000     0.617166666667     0          
O        O      0.641900000000     0.200000000000     0.449266666667     0          
O        O      0.625000000000     0.350000000000     0.500000000000     0          
T        Si     0.535500000000     0.200000000000     0.388666666667     0          
T        Si     0.531050000000     0.200000000000     0.636100000000     0          
T        Si     0.683550000000     0.200000000000     0.570633333333     0          
T        Si     0.689450000000     0.200000000000     0.373300000000     0          
T        Si     0.644250000000     0.200000000000     0.620833333333     0          
T        Si     0.640650000000     0.200000000000     0.404466666667     0          
T        Si     0.640900000000     0.200000000000     0.493033333333     0          
O        O      0.997750000000     0.200000000000     0.622900000000     0          
O        O      0.952100000000     0.350020000000     0.585966666667     0          
O        O      0.956200000000     0.200000000000     0.650333333333     0          
O        O      0.958700000000     0.250000000000     0.380800000000     0          
O        O      0.828000000000     0.200000000000     0.476333333333     0          
O        O      0.842350000000     0.200000000000     0.413500000000     0          
O        O      0.828300000000     0.200000000000     0.597366666667     0          
O        O      0.831300000000     0.200000000000     0.337666666667     0          
O        O      0.874600000000     0.349980000000     0.382833333333     0          
O        O      0.858100000000     0.200000000000     0.550733333333     0          
O        O      0.875000000000     0.350000000000     0.500000000000     0          
T        Si     0.964500000000     0.200000000000     0.611333333333     0          
T        Si     0.968950000000     0.200000000000     0.363900000000     0          
T        Si     0.816450000000     0.200000000000     0.429366666667     0          
T        Si     0.810550000000     0.200000000000     0.626700000000     0          
T        Si     0.855750000000     0.200000000000     0.379166666667     0          
T        Si     0.859350000000     0.200000000000     0.595533333333     0          
T        Si     0.859100000000     0.200000000000     0.506966666667     0          
O        O      0.952100000000     0.249980000000     0.585966666667     0          
O        O      0.958700000000     0.350000000000     0.380800000000     0          
O        O      0.874600000000     0.250020000000     0.382833333333     0          
O        O      0.875000000000     0.250000000000     0.500000000000     0          
O        O      0.547900000000     0.249980000000     0.414033333333     0          
O        O      0.541300000000     0.350000000000     0.619200000000     0          
O        O      0.625400000000     0.250020000000     0.617166666667     0          
O        O      0.625000000000     0.250000000000     0.500000000000     0          
O        O      0.752250000000     0.300000000000     0.377100000000     0          
O        O      0.797900000000     0.250020000000     0.414033333333     0          
O        O      0.793800000000     0.300000000000     0.349666666667     0          
O        O      0.791300000000     0.350000000000     0.619200000000     0          
O        O      0.922000000000     0.300000000000     0.523666666667     0          
O        O      0.907650000000     0.300000000000     0.586500000000     0          
O        O      0.921700000000     0.300000000000     0.402633333333     0          
O        O      0.918700000000     0.300000000000     0.662333333333     0          
O        O      0.875400000000     0.249980000000     0.617166666667     0          
O        O      0.891900000000     0.300000000000     0.449266666667     0          
T        Si     0.785500000000     0.300000000000     0.388666666667     0          
T        Si     0.781050000000     0.300000000000     0.636100000000     0          
T        Si     0.933550000000     0.300000000000     0.570633333333     0          
T        Si     0.939450000000     0.300000000000     0.373300000000     0          
T        Si     0.894250000000     0.300000000000     0.620833333333     0          
T        Si     0.890650000000     0.300000000000     0.404466666667     0          
T        Si     0.890900000000     0.300000000000     0.493033333333     0          
O        O      0.747750000000     0.300000000000     0.622900000000     0          
O        O      0.702100000000     0.250020000000     0.585966666667     0          
O        O      0.706200000000     0.300000000000     0.650333333333     0          
O        O      0.708700000000     0.350000000000     0.380800000000     0          
O        O      0.578000000000     0.300000000000     0.476333333333     0          
O        O      0.592350000000     0.300000000000     0.413500000000     0          
O        O      0.578300000000     0.300000000000     0.597366666667     0          
O        O      0.581300000000     0.300000000000     0.337666666667     0          
O        O      0.624600000000     0.249980000000     0.382833333333     0          
O        O      0.608100000000     0.300000000000     0.550733333333     0          
T        Si     0.714500000000     0.300000000000     0.611333333333     0          
T        Si     0.718950000000     0.300000000000     0.363900000000     0          
T        Si     0.566450000000     0.300000000000     0.429366666667     0          
T        Si     0.560550000000     0.300000000000     0.626700000000     0          
T        Si     0.605750000000     0.300000000000     0.379166666667     0          
T        Si     0.609350000000     0.300000000000     0.595533333333     0          
T        Si     0.609100000000     0.300000000000     0.506966666667     0          
O        O      0.702100000000     0.349980000000     0.585966666667     0          
O        O      0.708700000000     0.250000000000     0.380800000000     0          
O        O      0.624600000000     0.350020000000     0.382833333333     0          
O        O      0.797900000000     0.349980000000     0.414033333333     0          
O        O      0.791300000000     0.250000000000     0.619200000000     0          
O        O      0.875400000000     0.350020000000     0.617166666667     0          
O        O      0.502250000000     0.200000000000     0.710433333333     0          
O        O      0.547900000000     0.350020000000     0.747366666667     0          
O        O      0.543800000000     0.200000000000     0.683000000000     0          
O        O      0.541300000000     0.250000000000     0.952533333333     0          
O        O      0.672000000000     0.200000000000     0.857000000000     0          
O        O      0.657650000000     0.200000000000     0.919833333333     0          
O        O      0.671700000000     0.200000000000     0.735966666667     0          
O        O      0.668700000000     0.200000000000     0.995666666667     0          
O        O      0.625400000000     0.349980000000     0.950500000000     0          
O        O      0.641900000000     0.200000000000     0.782600000000     0          
O        O      0.625000000000     0.350000000000     0.833333333333     0          
T        Si     0.535500000000     0.200000000000     0.722000000000     0          
T        Si     0.531050000000     0.200000000000     0.969433333333     0          
T        Si     0.683550000000     0.200000000000     0.903966666667     0          
T        Si     0.689450000000     0.200000000000     0.706633333333     0          
T        Si     0.644250000000     0.200000000000     0.954166666667     0          
T        Si     0.640650000000     0.200000000000     0.737800000000     0          
T        Si     0.640900000000     0.200000000000     0.826366666667     0          
O        O      0.997750000000     0.200000000000     0.956233333333     0          
O        O      0.952100000000     0.350020000000     0.919300000000     0          
O        O      0.956200000000     0.200000000000     0.983666666667     0          
O        O      0.958700000000     0.250000000000     0.714133333333     0          
O        O      0.828000000000     0.200000000000     0.809666666667     0          
O        O      0.842350000000     0.200000000000     0.746833333333     0          
O        O      0.828300000000     0.200000000000     0.930700000000     0          
O        O      0.831300000000     0.200000000000     0.671000000000     0          
O        O      0.874600000000     0.349980000000     0.716166666667     0          
O        O      0.858100000000     0.200000000000     0.884066666667     0          
O        O      0.875000000000     0.350000000000     0.833333333333     0          
T        Si     0.964500000000     0.200000000000     0.944666666667     0          
T        Si     0.968950000000     0.200000000000     0.697233333333     0          
T        Si     0.816450000000     0.200000000000     0.762700000000     0          
T        Si     0.810550000000     0.200000000000     0.960033333333     0          
T        Si     0.855750000000     0.200000000000     0.712500000000     0          
T        Si     0.859350000000     0.200000000000     0.928866666667     0          
T        Si     0.859100000000     0.200000000000     0.840300000000     0          
O        O      0.952100000000     0.249980000000     0.919300000000     0          
O        O      0.958700000000     0.350000000000     0.714133333333     0          
O        O      0.874600000000     0.250020000000     0.716166666667     0          
O        O      0.875000000000     0.250000000000     0.833333333333     0          
O        O      0.547900000000     0.249980000000     0.747366666667     0          
O        O      0.541300000000     0.350000000000     0.952533333333     0          
O        O      0.625400000000     0.250020000000     0.950500000000     0          
O        O      0.625000000000     0.250000000000     0.833333333333     0          
O        O      0.752250000000     0.300000000000     0.710433333333     0          
O        O      0.797900000000     0.250020000000     0.747366666667     0          
O        O      0.793800000000     0.300000000000     0.683000000000     0          
O        O      0.791300000000     0.350000000000     0.952533333333     0          
O        O      0.922000000000     0.300000000000     0.857000000000     0          
O        O      0.907650000000     0.300000000000     0.919833333333     0          
O        O      0.921700000000     0.300000000000     0.735966666667     0          
O        O      0.918700000000     0.300000000000     0.995666666667     0          
O        O      0.875400000000     0.249980000000     0.950500000000     0          
O        O      0.891900000000     0.300000000000     0.782600000000     0          
T        Si     0.785500000000     0.300000000000     0.722000000000     0          
T        Si     0.781050000000     0.300000000000     0.969433333333     0          
T        Si     0.933550000000     0.300000000000     0.903966666667     0          
T        Si     0.939450000000     0.300000000000     0.706633333333     0          
T        Si     0.894250000000     0.300000000000     0.954166666667     0          
T        Si     0.890650000000     0.300000000000     0.737800000000     0          
T        Si     0.890900000000     0.300000000000     0.826366666667     0          
O        O      0.747750000000     0.300000000000     0.956233333333     0          
O        O      0.702100000000     0.250020000000     0.919300000000     0          
O        O      0.706200000000     0.300000000000     0.983666666667     0          
O        O      0.708700000000     0.350000000000     0.714133333333     0          
O        O      0.578000000000     0.300000000000     0.809666666667     0          
O        O      0.592350000000     0.300000000000     0.746833333333     0          
O        O      0.578300000000     0.300000000000     0.930700000000     0          
O        O      0.581300000000     0.300000000000     0.671000000000     0          
O        O      0.624600000000     0.249980000000     0.716166666667     0          
O        O      0.608100000000     0.300000000000     0.884066666667     0          
T        Si     0.714500000000     0.300000000000     0.944666666667     0          
T        Si     0.718950000000     0.300000000000     0.697233333333     0          
T        Si     0.566450000000     0.300000000000     0.762700000000     0          
T        Si     0.560550000000     0.300000000000     0.960033333333     0          
T        Si     0.605750000000     0.300000000000     0.712500000000     0          
T        Si     0.609350000000     0.300000000000     0.928866666667     0          
T        Si     0.609100000000     0.300000000000     0.840300000000     0          
O        O      0.702100000000     0.349980000000     0.919300000000     0          
O        O      0.708700000000     0.250000000000     0.714133333333     0          
O        O      0.624600000000     0.350020000000     0.716166666667     0          
O        O      0.797900000000     0.349980000000     0.747366666667     0          
O        O      0.791300000000     0.250000000000     0.952533333333     0          
O        O      0.875400000000     0.350020000000     0.950500000000     0          
O        O      0.502250000000     0.400000000000     0.043766666667     0          
O        O      0.547900000000     0.550020000000     0.080700000000     0          
O        O      0.543800000000     0.400000000000     0.016333333333     0          
O        O      0.541300000000     0.450000000000     0.285866666667     0          
O        O      0.672000000000     0.400000000000     0.190333333333     0          
O        O      0.657650000000     0.400000000000     0.253166666667     0          
O        O      0.671700000000     0.400000000000     0.069300000000     0          
O        O      0.668700000000     0.400000000000     0.329000000000     0          
O        O      0.625400000000     0.549980000000     0.283833333333     0          
O        O      0.641900000000     0.400000000000     0.115933333333     0          
O        O      0.625000000000     0.550000000000     0.166666666667     0          
T        Si     0.535500000000     0.400000000000     0.055333333333     0          
T        Si     0.531050000000     0.400000000000     0.302766666667     0          
T        Si     0.683550000000     0.400000000000     0.237300000000     0          
T        Si     0.689450000000     0.400000000000     0.039966666667     0          
T        Si     0.644250000000     0.400000000000     0.287500000000     0          
T        Si     0.640650000000     0.400000000000     0.071133333333     0          
T        Si     0.640900000000     0.400000000000     0.159700000000     0          
O        O      0.997750000000     0.400000000000     0.289566666667     0          
O        O      0.952100000000     0.550020000000     0.252633333333     0          
O        O      0.956200000000     0.400000000000     0.317000000000     0          
O        O      0.958700000000     0.450000000000     0.047466666667     0          
O        O      0.828000000000     0.400000000000     0.143000000000     0          
O        O      0.842350000000     0.400000000000     0.080166666667     0          
O        O      0.828300000000     0.400000000000     0.264033333333     0          
O        O      0.831300000000     0.400000000000     0.004333333333     0          
O        O      0.874600000000     0.549980000000     0.049500000000     0          
O        O      0.858100000000     0.400000000000     0.217400000000     0          
O        O      0.875000000000     0.550000000000     0.166666666667     0          
T        Si     0.964500000000     0.400000000000     0.278000000000     0          
T        Si     0.968950000000     0.400000000000     0.030566666667     0          
T        Si     0.816450000000     0.400000000000     0.096033333333     0          
T        Si     0.810550000000     0.400000000000     0.293366666667     0          
T        Si     0.855750000000     0.400000000000     0.045833333333     0          
T        Si     0.859350000000     0.400000000000     0.262200000000     0          
T        Si     0.859100000000     0.400000000000     0.173633333333     0          
O        O      0.952100000000     0.449980000000     0.252633333333     0          
O        O      0.958700000000     0.550000000000     0.047466666667     0          
O        O      0.874600000000     0.450020000000     0.049500000000     0          
O        O      0.875000000000     0.450000000000     0.166666666667     0          
O        O      0.547900000000     0.449980000000     0.080700000000     0          
O        O      0.541300000000     0.550000000000     0.285866666667     0          
O        O      0.625400000000     0.450020000000     0.283833333333     0          
O        O      0.625000000000     0.450000000000     0.166666666667     0          
O        O      0.752250000000     0.500000000000     0.043766666667     0          
O        O      0.797900000000     0.450020000000     0.080700000000     0          
O        O      0.793800000000     0.500000000000     0.016333333333     0          
O        O      0.791300000000     0.550000000000     0.285866666667     0          
O        O      0.922000000000     0.500000000000     0.190333333333     0          
O        O      0.907650000000     0.500000000000     0.253166666667     0          
O        O      0.921700000000     0.500000000000     0.069300000000     0          
O        O      0.918700000000     0.500000000000     0.329000000000     0          
O        O      0.875400000000     0.449980000000     0.283833333333     0          
O        O      0.891900000000     0.500000000000     0.115933333333     0          
T        Si     0.785500000000     0.500000000000     0.055333333333     0          
T        Si     0.781050000000     0.500000000000     0.302766666667     0          
T        Si     0.933550000000     0.500000000000     0.237300000000     0          
T        Si     0.939450000000     0.500000000000     0.039966666667     0          
T        Si     0.894250000000     0.500000000000     0.287500000000     0          
T        Si     0.890650000000     0.500000000000     0.071133333333     0          
T        Si     0.890900000000     0.500000000000     0.159700000000     0          
O        O      0.747750000000     0.500000000000     0.289566666667     0          
O        O      0.702100000000     0.450020000000     0.252633333333     0          
O        O      0.706200000000     0.500000000000     0.317000000000     0          
O        O      0.708700000000     0.550000000000     0.047466666667     0          
O        O      0.578000000000     0.500000000000     0.143000000000     0          
O        O      0.592350000000     0.500000000000     0.080166666667     0          
O        O      0.578300000000     0.500000000000     0.264033333333     0          
O        O      0.581300000000     0.500000000000     0.004333333333     0          
O        O      0.624600000000     0.449980000000     0.049500000000     0          
O        O      0.608100000000     0.500000000000     0.217400000000     0          
T        Si     0.714500000000     0.500000000000     0.278000000000     0          
T        Si     0.718950000000     0.500000000000     0.030566666667     0          
T        Si     0.566450000000     0.500000000000     0.096033333333     0          
T        Si     0.560550000000     0.500000000000     0.293366666667     0          
T        Si     0.605750000000     0.500000000000     0.045833333333     0          
T        Si     0.609350000000     0.500000000000     0.262200000000     0          
T        Si     0.609100000000     0.500000000000     0.173633333333     0          
O        O      0.702100000000     0.549980000000     0.252633333333     0          
O        O      0.708700000000     0.450000000000     0.047466666667     0          
O        O      0.624600000000     0.550020000000     0.049500000000     0          
O        O      0.797900000000     0.549980000000     0.080700000000     0          
O        O      0.791300000000     0.450000000000     0.285866666667     0          
O        O      0.875400000000     0.550020000000     0.283833333333     0          
O        O      0.502250000000     0.400000000000     0.377100000000     0          
O        O      0.547900000000     0.550020000000     0.414033333333     0          
O        O      0.543800000000     0.400000000000     0.349666666667     0          
O        O      0.541300000000     0.450000000000     0.619200000000     0          
O        O      0.672000000000     0.400000000000     0.523666666667     0          
O        O      0.657650000000     0.400000000000     0.586500000000     0          
O        O      0.671700000000     0.400000000000     0.402633333333     0          
O        O      0.668700000000     0.400000000000     0.662333333333     0          
O        O      0.625400000000     0.549980000000     0.617166666667     0          
O        O      0.641900000000     0.400000000000     0.449266666667     0          
O        O      0.625000000000     0.550000000000     0.500000000000     0          
T        Si     0.535500000000     0.400000000000     0.388666666667     0          
T        Si     0.531050000000     0.400000000000     0.636100000000     0          
T        Si     0.683550000000     0.400000000000     0.570633333333     0          
T        Si     0.689450000000     0.400000000000     0.373300000000     0          
T        Si     0.644250000000     0.400000000000     0.620833333333     0          
T        Si     0.640650000000     0.400000000000     0.404466666667     0          
T        Si     0.640900000000     0.400000000000     0.493033333333     0          
O        O      0.997750000000     0.400000000000     0.622900000000     0          
O        O      0.952100000000     0.550020000000     0.585966666667     0          
O        O      0.956200000000     0.400000000000     0.650333333333     0          
O        O      0.958700000000     0.450000000000     0.380800000000     0          
O        O      0.828000000000     0.400000000000     0.476333333333     0          
O        O      0.842350000000     0.400000000000     0.413500000000     0          
O        O      0.828300000000     0.400000000000     0.597366666667     0          
O        O      0.831300000000     0.400000000000     0.337666666667     0          
O        O      0.874600000000     0.549980000000     0.382833333333     0          
O        O      0.858100000000     0.400000000000     0.550733333333     0          
O        O      0.875000000000     0.550000000000     0.500000000000     0          
T        Si     0.964500000000     0.400000000000     0.611333333333     0          
T        Si     0.968950000000     0.400000000000     0.363900000000     0          
T        Si     0.816450000000     0.400000000000     0.429366666667     0          
T        Si     0.810550000000     0.400000000000     0.626700000000     0          
T        Si     0.855750000000     0.400000000000     0.379166666667     0          
T        Si     0.859350000000     0.400000000000     0.595533333333     0          
T        Si     0.859100000000     0.400000000000     0.506966666667     0          
O        O      0.952100000000     0.449980000000     0.585966666667     0          
O        O      0.958700000000     0.550000000000     0.380800000000     0          
O        O      0.874600000000     0.450020000000     0.382833333333     0          
O        O      0.875000000000     0.450000000000     0.500000000000     0          
O        O      0.547900000000     0.449980000000     0.414033333333     0          
O        O      0.541300000000     0.550000000000     0.619200000000     0          
O        O      0.625400000000     0.450020000000     0.617166666667     0          
O        O      0.625000000000     0.450000000000     0.500000000000     0          
O        O      0.752250000000     0.500000000000     0.377100000000     0          
O        O      0.797900000000     0.450020000000     0.414033333333     0          
O        O      0.793800000000     0.500000000000     0.349666666667     0          
O        O      0.791300000000     0.550000000000     0.619200000000     0          
O        O      0.922000000000     0.500000000000     0.523666666667     0          
O        O      0.907650000000     0.500000000000     0.586500000000     0          
O        O      0.921700000000     0.500000000000     0.402633333333     0          
O        O      0.918700000000     0.500000000000     0.662333333333     0          
O        O      0.875400000000     0.449980000000     0.617166666667     0          
O        O      0.891900000000     0.500000000000     0.449266666667     0          
T        Si     0.785500000000     0.500000000000     0.388666666667     0          
T        Si     0.781050000000     0.500000000000     0.636100000000     0          
T        Si     0.933550000000     0.500000000000     0.570633333333     0          
T        Si     0.939450000000     0.500000000000     0.373300000000     0          
T        Si     0.894250000000     0.500000000000     0.620833333333     0          
T        Si     0.890650000000     0.500000000000     0.404466666667     0          
T        Si     0.890900000000     0.500000000000     0.493033333333     0          
O        O      0.747750000000     0.500000000000     0.622900000000     0          
O        O      0.702100000000     0.450020000000     0.585966666667     0          
O        O      0.706200000000     0.500000000000     0.650333333333     0          
O        O      0.708700000000     0.550000000000     0.380800000000     0          
O        O      0.578000000000     0.500000000000     0.476333333333     0          
O        O      0.592350000000     0.500000000000     0.413500000000     0          
O        O      0.578300000000     0.500000000000     0.597366666667     0          
O        O      0.581300000000     0.500000000000     0.337666666667     0          
O        O      0.624600000000     0.449980000000     0.382833333333     0          
O        O      0.608100000000     0.500000000000     0.550733333333     0          
T        Si     0.714500000000     0.500000000000     0.611333333333     0          
T        Si     0.718950000000     0.500000000000     0.363900000000     0          
T        Si     0.566450000000     0.500000000000     0.429366666667     0          
T        Si     0.560550000000     0.500000000000     0.626700000000     0          
T        Si     0.605750000000     0.500000000000     0.379166666667     0          
T        Si     0.609350000000     0.500000000000     0.595533333333     0          
T        Si     0.609100000000     0.500000000000     0.506966666667     0          
O        O      0.702100000000     0.549980000000     0.585966666667     0          
O        O      0.708700000000     0.450000000000     0.380800000000     0          
O        O      0.624600000000     0.550020000000     0.382833333333     0          
O        O      0.797900000000     0.549980000000     0.414033333333     0          
O        O      0.791300000000     0.450000000000     0.619200000000     0          
O        O      0.875400000000     0.550020000000     0.617166666667     0          
O        O      0.502250000000     0.400000000000     0.710433333333     0          
O        O      0.547900000000     0.550020000000     0.747366666667     0          
O        O      0.543800000000     0.400000000000     0.683000000000     0          
O        O      0.541300000000     0.450000000000     0.952533333333     0          
O        O      0.672000000000     0.400000000000     0.857000000000     0          
O        O      0.657650000000     0.400000000000     0.919833333333     0          
O        O      0.671700000000     0.400000000000     0.735966666667     0          
O        O      0.668700000000     0.400000000000     0.995666666667     0          
O        O      0.625400000000     0.549980000000     0.950500000000     0          
O        O      0.641900000000     0.400000000000     0.782600000000     0          
O        O      0.625000000000     0.550000000000     0.833333333333     0          
T        Si     0.535500000000     0.400000000000     0.722000000000     0          
T        Si     0.531050000000     0.400000000000     0.969433333333     0          
T        Si     0.683550000000     0.400000000000     0.903966666667     0          
T        Si     0.689450000000     0.400000000000     0.706633333333     0          
T        Si     0.644250000000     0.400000000000     0.954166666667     0          
T        Si     0.640650000000     0.400000000000     0.737800000000     0          
T        Si     0.640900000000     0.400000000000     0.826366666667     0          
O        O      0.997750000000     0.400000000000     0.956233333333     0          
O        O      0.952100000000     0.550020000000     0.919300000000     0          
O        O      0.956200000000     0.400000000000     0.983666666667     0          
O        O      0.958700000000     0.450000000000     0.714133333333     0          
O        O      0.828000000000     0.400000000000     0.809666666667     0          
O        O      0.842350000000     0.400000000000     0.746833333333     0          
O        O      0.828300000000     0.400000000000     0.930700000000     0          
O        O      0.831300000000     0.400000000000     0.671000000000     0          
O        O      0.874600000000     0.549980000000     0.716166666667     0          
O        O      0.858100000000     0.400000000000     0.884066666667     0          
O        O      0.875000000000     0.550000000000     0.833333333333     0          
T        Si     0.964500000000     0.400000000000     0.944666666667     0          
T        Si     0.968950000000     0.400000000000     0.697233333333     0          
T        Si     0.816450000000     0.400000000000     0.762700000000     0          
T        Si     0.810550000000     0.400000000000     0.960033333333     0          
T        Si     0.855750000000     0.400000000000     0.712500000000     0          
T        Si     0.859350000000     0.400000000000     0.928866666667     0          
T        Si     0.859100000000     0.400000000000     0.840300000000     0          
O        O      0.952100000000     0.449980000000     0.919300000000     0          
O        O      0.958700000000     0.550000000000     0.714133333333     0          
O        O      0.874600000000     0.450020000000     0.716166666667     0          
O        O      0.875000000000     0.450000000000     0.833333333333     0          
O        O      0.547900000000     0.449980000000     0.747366666667     0          
O        O      0.541300000000     0.550000000000     0.952533333333     0          
O        O      0.625400000000     0.450020000000     0.950500000000     0          
O        O      0.625000000000     0.450000000000     0.833333333333     0          
O        O      0.752250000000     0.500000000000     0.710433333333     0          
O        O      0.797900000000     0.450020000000     0.747366666667     0          
O        O      0.793800000000     0.500000000000     0.683000000000     0          
O        O      0.791300000000     0.550000000000     0.952533333333     0          
O        O      0.922000000000     0.500000000000     0.857000000000     0          
O        O      0.907650000000     0.500000000000     0.919833333333     0          
O        O      0.921700000000     0.500000000000     0.735966666667     0          
O        O      0.918700000000     0.500000000000     0.995666666667     0          
O        O      0.875400000000     0.449980000000     0.950500000000     0          
O        O      0.891900000000     0.500000000000     0.782600000000     0          
T        Si     0.785500000000     0.500000000000     0.722000000000     0          
T        Si     0.781050000000     0.500000000000     0.969433333333     0          
T        Si     0.933550000000     0.500000000000     0.903966666667     0          
T        Si     0.939450000000     0.500000000000     0.706633333333     0          
T        Si     0.894250000000     0.500000000000     0.954166666667     0          
T        Si     0.890650000000     0.500000000000     0.737800000000     0          
T        Si     0.890900000000     0.500000000000     0.826366666667     0          
O        O      0.747750000000     0.500000000000     0.956233333333     0          
O        O      0.702100000000     0.450020000000     0.919300000000     0          
O        O      0.706200000000     0.500000000000     0.983666666667     0          
O        O      0.708700000000     0.550000000000     0.714133333333     0          
O        O      0.578000000000     0.500000000000     0.809666666667     0          
O        O      0.592350000000     0.500000000000     0.746833333333     0          
O        O      0.578300000000     0.500000000000     0.930700000000     0          
O        O      0.581300000000     0.500000000000     0.671000000000     0          
O        O      0.624600000000     0.449980000000     0.716166666667     0          
O        O      0.608100000000     0.500000000000     0.884066666667     0          
T        Si     0.714500000000     0.500000000000     0.944666666667     0          
T        Si     0.718950000000     0.500000000000     0.697233333333     0          
T        Si     0.566450000000     0.500000000000     0.762700000000     0          
T        Si     0.560550000000     0.500000000000     0.960033333333     0          
T        Si     0.605750000000     0.500000000000     0.712500000000     0          
T        Si     0.609350000000     0.500000000000     0.928866666667     0          
T        Si     0.609100000000     0.500000000000     0.840300000000     0          
O        O      0.702100000000     0.549980000000     0.919300000000     0          
O        O      0.708700000000     0.450000000000     0.714133333333     0          
O        O      0.624600000000     0.550020000000     0.716166666667     0          
O        O      0.797900000000     0.549980000000     0.747366666667     0          
O        O      0.791300000000     0.450000000000     0.952533333333     0          
O        O      0.875400000000     0.550020000000     0.950500000000     0          
O        O      0.502250000000     0.600000000000     0.043766666667     0          
O        O      0.547900000000     0.750020000000     0.080700000000     0          
O        O      0.543800000000     0.600000000000     0.016333333333     0          
O        O      0.541300000000     0.650000000000     0.285866666667     0          
O        O      0.672000000000     0.600000000000     0.190333333333     0          
O        O      0.657650000000     0.600000000000     0.253166666667     0          
O        O      0.671700000000     0.600000000000     0.069300000000     0          
O        O      0.668700000000     0.600000000000     0.329000000000     0          
O        O      0.625400000000     0.749980000000     0.283833333333     0          
O        O      0.641900000000     0.600000000000     0.115933333333     0          
O        O      0.625000000000     0.750000000000     0.166666666667     0          
T        Si     0.535500000000     0.600000000000     0.055333333333     0          
T        Si     0.531050000000     0.600000000000     0.302766666667     0          
T        Si     0.683550000000     0.600000000000     0.237300000000     0          
T        Si     0.689450000000     0.600000000000     0.039966666667     0          
T        Si     0.644250000000     0.600000000000     0.287500000000     0          
T        Si     0.640650000000     0.600000000000     0.071133333333     0          
T        Si     0.640900000000     0.600000000000     0.159700000000     0          
O        O      0.997750000000     0.600000000000     0.289566666667     0          
O        O      0.952100000000     0.750020000000     0.252633333333     0          
O        O      0.956200000000     0.600000000000     0.317000000000     0          
O        O      0.958700000000     0.650000000000     0.047466666667     0          
O        O      0.828000000000     0.600000000000     0.143000000000     0          
O        O      0.842350000000     0.600000000000     0.080166666667     0          
O        O      0.828300000000     0.600000000000     0.264033333333     0          
O        O      0.831300000000     0.600000000000     0.004333333333     0          
O        O      0.874600000000     0.749980000000     0.049500000000     0          
O        O      0.858100000000     0.600000000000     0.217400000000     0          
O        O      0.875000000000     0.750000000000     0.166666666667     0          
T        Si     0.964500000000     0.600000000000     0.278000000000     0          
T        Si     0.968950000000     0.600000000000     0.030566666667     0          
T        Si     0.816450000000     0.600000000000     0.096033333333     0          
T        Si     0.810550000000     0.600000000000     0.293366666667     0          
T        Si     0.855750000000     0.600000000000     0.045833333333     0          
T        Si     0.859350000000     0.600000000000     0.262200000000     0          
T        Si     0.859100000000     0.600000000000     0.173633333333     0          
O        O      0.952100000000     0.649980000000     0.252633333333     0          
O        O      0.958700000000     0.750000000000     0.047466666667     0          
O        O      0.874600000000     0.650020000000     0.049500000000     0          
O        O      0.875000000000     0.650000000000     0.166666666667     0          
O        O      0.547900000000     0.649980000000     0.080700000000     0          
O        O      0.541300000000     0.750000000000     0.285866666667     0          
O        O      0.625400000000     0.650020000000     0.283833333333     0          
O        O      0.625000000000     0.650000000000     0.166666666667     0          
O        O      0.752250000000     0.700000000000     0.043766666667     0          
O        O      0.797900000000     0.650020000000     0.080700000000     0          
O        O      0.793800000000     0.700000000000     0.016333333333     0          
O        O      0.791300000000     0.750000000000     0.285866666667     0          
O        O      0.922000000000     0.700000000000     0.190333333333     0          
O        O      0.907650000000     0.700000000000     0.253166666667     0          
O        O      0.921700000000     0.700000000000     0.069300000000     0          
O        O      0.918700000000     0.700000000000     0.329000000000     0          
O        O      0.875400000000     0.649980000000     0.283833333333     0          
O        O      0.891900000000     0.700000000000     0.115933333333     0          
T        Si     0.785500000000     0.700000000000     0.055333333333     0          
T        Si     0.781050000000     0.700000000000     0.302766666667     0          
T        Si     0.933550000000     0.700000000000     0.237300000000     0          
T        Si     0.939450000000     0.700000000000     0.039966666667     0          
T        Si     0.894250000000     0.700000000000     0.287500000000     0          
T        Si     0.890650000000     0.700000000000     0.071133333333     0          
T        Si     0.890900000000     0.700000000000     0.159700000000     0          
O        O      0.747750000000     0.700000000000     0.289566666667     0          
O        O      0.702100000000     0.650020000000     0.252633333333     0          
O        O      0.706200000000     0.700000000000     0.317000000000     0          
O        O      0.708700000000     0.750000000000     0.047466666667     0          
O        O      0.578000000000     0.700000000000     0.143000000000     0          
O        O      0.592350000000     0.700000000000     0.080166666667     0          
O        O      0.578300000000     0.700000000000     0.264033333333     0          
O        O      0.581300000000     0.700000000000     0.004333333333     0          
O        O      0.624600000000     0.649980000000     0.049500000000     0          
O        O      0.608100000000     0.700000000000     0.217400000000     0          
T        Si     0.714500000000     0.700000000000     0.278000000000     0          
T        Si     0.718950000000     0.700000000000     0.030566666667     0          
T        Si     0.566450000000     0.700000000000     0.096033333333     0          
T        Si     0.560550000000     0.700000000000     0.293366666667     0          
T        Si     0.605750000000     0.700000000000     0.045833333333     0          
T        Si     0.609350000000     0.700000000000     0.262200000000     0          
T        Si     0.609100000000     0.700000000000     0.173633333333     0          
O        O      0.702100000000     0.749980000000     0.252633333333     0          
O        O      0.708700000000     0.650000000000     0.047466666667     0          
O        O      0.624600000000     0.750020000000     0.049500000000     0          
O        O      0.797900000000     0.749980000000     0.080700000000     0          
O        O      0.791300000000     0.650000000000     0.285866666667     0          
O        O      0.875400000000     0.750020000000     0.283833333333     0          
O        O      0.502250000000     0.600000000000     0.377100000000     0          
O        O      0.547900000000     0.750020000000     0.414033333333     0          
O        O      0.543800000000     0.600000000000     0.349666666667     0          
O        O      0.541300000000     0.650000000000     0.619200000000     0          
O        O      0.672000000000     0.600000000000     0.523666666667     0          
O        O      0.657650000000     0.600000000000     0.586500000000     0          
O        O      0.671700000000     0.600000000000     0.402633333333     0          
O        O      0.668700000000     0.600000000000     0.662333333333     0          
O        O      0.625400000000     0.749980000000     0.617166666667     0          
O        O      0.641900000000     0.600000000000     0.449266666667     0          
O        O      0.625000000000     0.750000000000     0.500000000000     0          
T        Si     0.535500000000     0.600000000000     0.388666666667     0          
T        Si     0.531050000000     0.600000000000     0.636100000000     0          
T        Si     0.683550000000     0.600000000000     0.570633333333     0          
T        Si     0.689450000000     0.600000000000     0.373300000000     0          
T        Si     0.644250000000     0.600000000000     0.620833333333     0          
T        Si     0.640650000000     0.600000000000     0.404466666667     0          
T        Si     0.640900000000     0.600000000000     0.493033333333     0          
O        O      0.997750000000     0.600000000000     0.622900000000     0          
O        O      0.952100000000     0.750020000000     0.585966666667     0          
O        O      0.956200000000     0.600000000000     0.650333333333     0          
O        O      0.958700000000     0.650000000000     0.380800000000     0          
O        O      0.828000000000     0.600000000000     0.476333333333     0          
O        O      0.842350000000     0.600000000000     0.413500000000     0          
O        O      0.828300000000     0.600000000000     0.597366666667     0          
O        O      0.831300000000     0.600000000000     0.337666666667     0          
O        O      0.874600000000     0.749980000000     0.382833333333     0          
O        O      0.858100000000     0.600000000000     0.550733333333     0          
O        O      0.875000000000     0.750000000000     0.500000000000     0          
T        Si     0.964500000000     0.600000000000     0.611333333333     0          
T        Si     0.968950000000     0.600000000000     0.363900000000     0          
T        Si     0.816450000000     0.600000000000     0.429366666667     0          
T        Si     0.810550000000     0.600000000000     0.626700000000     0          
T        Si     0.855750000000     0.600000000000     0.379166666667     0          
T        Si     0.859350000000     0.600000000000     0.595533333333     0          
T        Si     0.859100000000     0.600000000000     0.506966666667     0          
O        O      0.952100000000     0.649980000000     0.585966666667     0          
O        O      0.958700000000     0.750000000000     0.380800000000     0          
O        O      0.874600000000     0.650020000000     0.382833333333     0          
O        O      0.875000000000     0.650000000000     0.500000000000     0          
O        O      0.547900000000     0.649980000000     0.414033333333     0          
O        O      0.541300000000     0.750000000000     0.619200000000     0          
O        O      0.625400000000     0.650020000000     0.617166666667     0          
O        O      0.625000000000     0.650000000000     0.500000000000     0          
O        O      0.752250000000     0.700000000000     0.377100000000     0          
O        O      0.797900000000     0.650020000000     0.414033333333     0          
O        O      0.793800000000     0.700000000000     0.349666666667     0          
O        O      0.791300000000     0.750000000000     0.619200000000     0          
O        O      0.922000000000     0.700000000000     0.523666666667     0          
O        O      0.907650000000     0.700000000000     0.586500000000     0          
O        O      0.921700000000     0.700000000000     0.402633333333     0          
O        O      0.918700000000     0.700000000000     0.662333333333     0          
O        O      0.875400000000     0.649980000000     0.617166666667     0          
O        O      0.891900000000     0.700000000000     0.449266666667     0          
T        Si     0.785500000000     0.700000000000     0.388666666667     0          
T        Si     0.781050000000     0.700000000000     0.636100000000     0          
T        Si     0.933550000000     0.700000000000     0.570633333333     0          
T        Si     0.939450000000     0.700000000000     0.373300000000     0          
T        Si     0.894250000000     0.700000000000     0.620833333333     0          
T        Si     0.890650000000     0.700000000000     0.404466666667     0          
T        Si     0.890900000000     0.700000000000     0.493033333333     0          
O        O      0.747750000000     0.700000000000     0.622900000000     0          
O        O      0.702100000000     0.650020000000     0.585966666667     0          
O        O      0.706200000000     0.700000000000     0.650333333333     0          
O        O      0.708700000000     0.750000000000     0.380800000000     0          
O        O      0.578000000000     0.700000000000     0.476333333333     0          
O        O      0.592350000000     0.700000000000     0.413500000000     0          
O        O      0.578300000000     0.700000000000     0.597366666667     0          
O        O      0.581300000000     0.700000000000     0.337666666667     0          
O        O      0.624600000000     0.649980000000     0.382833333333     0          
O        O      0.608100000000     0.700000000000     0.550733333333     0          
T        Si     0.714500000000     0.700000000000     0.611333333333     0          
T        Si     0.718950000000     0.700000000000     0.363900000000     0          
T        Si     0.566450000000     0.700000000000     0.429366666667     0          
T        Si     0.560550000000     0.700000000000     0.626700000000     0          
T        Si     0.605750000000     0.700000000000     0.379166666667     0          
T        Si     0.609350000000     0.700000000000     0.595533333333     0          
T        Si     0.609100000000     0.700000000000     0.506966666667     0          
O        O      0.702100000000     0.749980000000     0.585966666667     0          
O        O      0.708700000000     0.650000000000     0.380800000000     0          
O        O      0.624600000000     0.750020000000     0.382833333333     0          
O        O      0.797900000000     0.749980000000     0.414033333333     0          
O        O      0.791300000000     0.650000000000     0.619200000000     0          
O        O      0.875400000000     0.750020000000     0.617166666667     0          
O        O      0.502250000000     0.600000000000     0.710433333333     0          
O        O      0.547900000000     0.750020000000     0.747366666667     0          
O        O      0.543800000000     0.600000000000     0.683000000000     0          
O        O      0.541300000000     0.650000000000     0.952533333333     0          
O        O      0.672000000000     0.600000000000     0.857000000000     0          
O        O      0.657650000000     0.600000000000     0.919833333333     0          
O        O      0.671700000000     0.600000000000     0.735966666667     0          
O        O      0.668700000000     0.600000000000     0.995666666667     0          
O        O      0.625400000000     0.749980000000     0.950500000000     0          
O        O      0.641900000000     0.600000000000     0.782600000000     0          
O        O      0.625000000000     0.750000000000     0.833333333333     0          
T        Si     0.535500000000     0.600000000000     0.722000000000     0          
T        Si     0.531050000000     0.600000000000     0.969433333333     0          
T        Si     0.683550000000     0.600000000000     0.903966666667     0          
T        Si     0.689450000000     0.600000000000     0.706633333333     0          
T        Si     0.644250000000     0.600000000000     0.954166666667     0          
T        Si     0.640650000000     0.600000000000     0.737800000000     0          
T        Si     0.640900000000     0.600000000000     0.826366666667     0          
O        O      0.997750000000     0.600000000000     0.956233333333     0          
O        O      0.952100000000     0.750020000000     0.919300000000     0          
O        O      0.956200000000     0.600000000000     0.983666666667     0          
O        O      0.958700000000     0.650000000000     0.714133333333     0          
O        O      0.828000000000     0.600000000000     0.809666666667     0          
O        O      0.842350000000     0.600000000000     0.746833333333     0          
O        O      0.828300000000     0.600000000000     0.930700000000     0          
O        O      0.831300000000     0.600000000000     0.671000000000     0          
O        O      0.874600000000     0.749980000000     0.716166666667     0          
O        O      0.858100000000     0.600000000000     0.884066666667     0          
O        O      0.875000000000     0.750000000000     0.833333333333     0          
T        Si     0.964500000000     0.600000000000     0.944666666667     0          
T        Si     0.968950000000     0.600000000000     0.697233333333     0          
T        Si     0.816450000000     0.600000000000     0.762700000000     0          
T        Si     0.810550000000     0.600000000000     0.960033333333     0          
T        Si     0.855750000000     0.600000000000     0.712500000000     0          
T        Si     0.859350000000     0.600000000000     0.928866666667     0          
T        Si     0.859100000000     0.600000000000     0.840300000000     0          
O        O      0.952100000000     0.649980000000     0.919300000000     0          
O        O      0.958700000000     0.750000000000     0.714133333333     0          
O        O      0.874600000000     0.650020000000     0.716166666667     0          
O        O      0.875000000000     0.650000000000     0.833333333333     0          
O        O      0.547900000000     0.649980000000     0.747366666667     0          
O        O      0.541300000000     0.750000000000     0.952533333333     0          
O        O      0.625400000000     0.650020000000     0.950500000000     0          
O        O      0.625000000000     0.650000000000     0.833333333333     0          
O        O      0.752250000000     0.700000000000     0.710433333333     0          
O        O      0.797900000000     0.650020000000     0.747366666667     0          
O        O      0.793800000000     0.700000000000     0.683000000000     0          
O        O      0.791300000000     0.750000000000     0.952533333333     0          
O        O      0.922000000000     0.700000000000     0.857000000000     0          
O        O      0.907650000000     0.700000000000     0.919833333333     0          
O        O      0.921700000000     0.700000000000     0.735966666667     0          
O        O      0.918700000000     0.700000000000     0.995666666667     0          
O        O      0.875400000000     0.649980000000     0.950500000000     0          
O        O      0.891900000000     0.700000000000     0.782600000000     0          
T        Si     0.785500000000     0.700000000000     0.722000000000     0          
T        Si     0.781050000000     0.700000000000     0.969433333333     0          
T        Si     0.933550000000     0.700000000000     0.903966666667     0          
T        Si     0.939450000000     0.700000000000     0.706633333333     0          
T        Si     0.894250000000     0.700000000000     0.954166666667     0          
T        Si     0.890650000000     0.700000000000     0.737800000000     0          
T        Si     0.890900000000     0.700000000000     0.826366666667     0          
O        O      0.747750000000     0.700000000000     0.956233333333     0          
O        O      0.702100000000     0.650020000000     0.919300000000     0          
O        O      0.706200000000     0.700000000000     0.983666666667     0          
O        O      0.708700000000     0.750000000000     0.714133333333     0          
O        O      0.578000000000     0.700000000000     0.809666666667     0          
O        O      0.592350000000     0.700000000000     0.746833333333     0          
O        O      0.578300000000     0.700000000000     0.930700000000     0          
O        O      0.581300000000     0.700000000000     0.671000000000     0          
O        O      0.624600000000     0.649980000000     0.716166666667     0          
O        O      0.608100000000     0.700000000000     0.884066666667     0          
T        Si     0.714500000000     0.700000000000     0.944666666667     0          
T        Si     0.718950000000     0.700000000000     0.697233333333     0          
T        Si     0.566450000000     0.700000000000     0.762700000000     0          
T        Si     0.560550000000     0.700000000000     0.960033333333     0          
T        Si     0.605750000000     0.700000000000     0.712500000000     0          
T        Si     0.609350000000     0.700000000000     0.928866666667     0          
T        Si     0.609100000000     0.700000000000     0.840300000000     0          
O        O      0.702100000000     0.749980000000     0.919300000000     0          
O        O      0.708700000000     0.650000000000     0.714133333333     0          
O        O      0.624600000000     0.750020000000     0.716166666667     0          
O        O      0.797900000000     0.749980000000     0.747366666667     0          
O        O      0.791300000000     0.650000000000     0.952533333333     0          
O        O      0.875400000000     0.750020000000     0.950500000000     0          
O        O      0.502250000000     0.800000000000     0.043766666667     0          
O        O      0.547900000000     0.950020000000     0.080700000000     0          
O        O      0.543800000000     0.800000000000     0.016333333333     0          
O        O      0.541300000000     0.850000000000     0.285866666667     0          
O        O      0.672000000000     0.800000000000     0.190333333333     0          
O        O      0.657650000000     0.800000000000     0.253166666667     0          
O        O      0.671700000000     0.800000000000     0.069300000000     0          
O        O      0.668700000000     0.800000000000     0.329000000000     0          
O        O      0.625400000000     0.949980000000     0.283833333333     0          
O        O      0.641900000000     0.800000000000     0.115933333333     0          
O        O      0.625000000000     0.950000000000     0.166666666667     0          
T        Si     0.535500000000     0.800000000000     0.055333333333     0          
T        Si     0.531050000000     0.800000000000     0.302766666667     0          
T        Si     0.683550000000     0.800000000000     0.237300000000     0          
T        Si     0.689450000000     0.800000000000     0.039966666667     0          
T        Si     0.644250000000     0.800000000000     0.287500000000     0          
T        Si     0.640650000000     0.800000000000     0.071133333333     0          
T        Si     0.640900000000     0.800000000000     0.159700000000     0          
O        O      0.997750000000     0.800000000000     0.289566666667     0          
O        O      0.952100000000     0.950020000000     0.252633333333     0          
O        O      0.956200000000     0.800000000000     0.317000000000     0          
O        O      0.958700000000     0.850000000000     0.047466666667     0          
O        O      0.828000000000     0.800000000000     0.143000000000     0          
O        O      0.842350000000     0.800000000000     0.080166666667     0          
O        O      0.828300000000     0.800000000000     0.264033333333     0          
O        O      0.831300000000     0.800000000000     0.004333333333     0          
O        O      0.874600000000     0.949980000000     0.049500000000     0          
O        O      0.858100000000     0.800000000000     0.217400000000     0          
O        O      0.875000000000     0.950000000000     0.166666666667     0          
T        Si     0.964500000000     0.800000000000     0.278000000000     0          
T        Si     0.968950000000     0.800000000000     0.030566666667     0          
T        Si     0.816450000000     0.800000000000     0.096033333333     0          
T        Si     0.810550000000     0.800000000000     0.293366666667     0          
T        Si     0.855750000000     0.800000000000     0.045833333333     0          
T        Si     0.859350000000     0.800000000000     0.262200000000     0          
T        Si     0.859100000000     0.800000000000     0.173633333333     0          
O        O      0.952100000000     0.849980000000     0.252633333333     0          
O        O      0.958700000000     0.950000000000     0.047466666667     0          
O        O      0.874600000000     0.850020000000     0.049500000000     0          
O        O      0.875000000000     0.850000000000     0.166666666667     0          
O        O      0.547900000000     0.849980000000     0.080700000000     0          
O        O      0.541300000000     0.950000000000     0.285866666667     0          
O        O      0.625400000000     0.850020000000     0.283833333333     0          
O        O      0.625000000000     0.850000000000     0.166666666667     0          
O        O      0.752250000000     0.900000000000     0.043766666667     0          
O        O      0.797900000000     0.850020000000     0.080700000000     0          
O        O      0.793800000000     0.900000000000     0.016333333333     0          
O        O      0.791300000000     0.950000000000     0.285866666667     0          
O        O      0.922000000000     0.900000000000     0.190333333333     0          
O        O      0.907650000000     0.900000000000     0.253166666667     0          
O        O      0.921700000000     0.900000000000     0.069300000000     0          
O        O      0.918700000000     0.900000000000     0.329000000000     0          
O        O      0.875400000000     0.849980000000     0.283833333333     0          
O        O      0.891900000000     0.900000000000     0.115933333333     0          
T        Si     0.785500000000     0.900000000000     0.055333333333     0          
T        Si     0.781050000000     0.900000000000     0.302766666667     0          
T        Si     0.933550000000     0.900000000000     0.237300000000     0          
T        Si     0.939450000000     0.900000000000     0.039966666667     0          
T        Si     0.894250000000     0.900000000000     0.287500000000     0          
T        Si     0.890650000000     0.900000000000     0.071133333333     0          
T        Si     0.890900000000     0.900000000000     0.159700000000     0          
O        O      0.747750000000     0.900000000000     0.289566666667     0          
O        O      0.702100000000     0.850020000000     0.252633333333     0          
O        O      0.706200000000     0.900000000000     0.317000000000     0          
O        O      0.708700000000     0.950000000000     0.047466666667     0          
O        O      0.578000000000     0.900000000000     0.143000000000     0          
O        O      0.592350000000     0.900000000000     0.080166666667     0          
O        O      0.578300000000     0.900000000000     0.264033333333     0          
O        O      0.581300000000     0.900000000000     0.004333333333     0          
O        O      0.624600000000     0.849980000000     0.049500000000     0          
O        O      0.608100000000     0.900000000000     0.217400000000     0          
T        Si     0.714500000000     0.900000000000     0.278000000000     0          
T        Si     0.718950000000     0.900000000000     0.030566666667     0          
T        Si     0.566450000000     0.900000000000     0.096033333333     0          
T        Si     0.560550000000     0.900000000000     0.293366666667     0          
T        Si     0.605750000000     0.900000000000     0.045833333333     0          
T        Si     0.609350000000     0.900000000000     0.262200000000     0          
T        Si     0.609100000000     0.900000000000     0.173633333333     0          
O        O      0.702100000000     0.949980000000     0.252633333333     0          
O        O      0.708700000000     0.850000000000     0.047466666667     0          
O        O      0.624600000000     0.950020000000     0.049500000000     0          
O        O      0.797900000000     0.949980000000     0.080700000000     0          
O        O      0.791300000000     0.850000000000     0.285866666667     0          
O        O      0.875400000000     0.950020000000     0.283833333333     0          
O        O      0.502250000000     0.800000000000     0.377100000000     0          
O        O      0.547900000000     0.950020000000     0.414033333333     0          
O        O      0.543800000000     0.800000000000     0.349666666667     0          
O        O      0.541300000000     0.850000000000     0.619200000000     0          
O        O      0.672000000000     0.800000000000     0.523666666667     0          
O        O      0.657650000000     0.800000000000     0.586500000000     0          
O        O      0.671700000000     0.800000000000     0.402633333333     0          
O        O      0.668700000000     0.800000000000     0.662333333333     0          
O        O      0.625400000000     0.949980000000     0.617166666667     0          
O        O      0.641900000000     0.800000000000     0.449266666667     0          
O        O      0.625000000000     0.950000000000     0.500000000000     0          
T        Si     0.535500000000     0.800000000000     0.388666666667     0          
T        Si     0.531050000000     0.800000000000     0.636100000000     0          
T        Si     0.683550000000     0.800000000000     0.570633333333     0          
T        Si     0.689450000000     0.800000000000     0.373300000000     0          
T        Si     0.644250000000     0.800000000000     0.620833333333     0          
T        Si     0.640650000000     0.800000000000     0.404466666667     0          
T        Si     0.640900000000     0.800000000000     0.493033333333     0          
O        O      0.997750000000     0.800000000000     0.622900000000     0          
O        O      0.952100000000     0.950020000000     0.585966666667     0          
O        O      0.956200000000     0.800000000000     0.650333333333     0          
O        O      0.958700000000     0.850000000000     0.380800000000     0          
O        O      0.828000000000     0.800000000000     0.476333333333     0          
O        O      0.842350000000     0.800000000000     0.413500000000     0          
O        O      0.828300000000     0.800000000000     0.597366666667     0          
O        O      0.831300000000     0.800000000000     0.337666666667     0          
O        O      0.874600000000     0.949980000000     0.382833333333     0          
O        O      0.858100000000     0.800000000000     0.550733333333     0          
O        O      0.875000000000     0.950000000000     0.500000000000     0          
T        Si     0.964500000000     0.800000000000     0.611333333333     0          
T        Si     0.968950000000     0.800000000000     0.363900000000     0          
T        Si     0.816450000000     0.800000000000     0.429366666667     0          
T        Si     0.810550000000     0.800000000000     0.626700000000     0          
T        Si     0.855750000000     0.800000000000     0.379166666667     0          
T        Si     0.859350000000     0.800000000000     0.595533333333     0          
T        Si     0.859100000000     0.800000000000     0.506966666667     0          
O        O      0.952100000000     0.849980000000     0.585966666667     0          
O        O      0.958700000000     0.950000000000     0.380800000000     0          
O        O      0.874600000000     0.850020000000     0.382833333333     0          
O        O      0.875000000000     0.850000000000     0.500000000000     0          
O        O      0.547900000000     0.849980000000     0.414033333333     0          
O        O      0.541300000000     0.950000000000     0.619200000000     0          
O        O      0.625400000000     0.850020000000     0.617166666667     0          
O        O      0.625000000000     0.850000000000     0.500000000000     0          
O        O      0.752250000000     0.900000000000     0.377100000000     0          
O        O      0.797900000000     0.850020000000     0.414033333333     0          
O        O      0.793800000000     0.900000000000     0.349666666667     0          
O        O      0.791300000000     0.950000000000     0.619200000000     0          
O        O      0.922000000000     0.900000000000     0.523666666667     0          
O        O      0.907650000000     0.900000000000     0.586500000000     0          
O        O      0.921700000000     0.900000000000     0.402633333333     0          
O        O      0.918700000000     0.900000000000     0.662333333333     0          
O        O      0.875400000000     0.849980000000     0.617166666667     0          
O        O      0.891900000000     0.900000000000     0.449266666667     0          
T        Si     0.785500000000     0.900000000000     0.388666666667     0          
T        Si     0.781050000000     0.900000000000     0.636100000000     0          
T        Si     0.933550000000     0.900000000000     0.570633333333     0          
T        Si     0.939450000000     0.900000000000     0.373300000000     0          
T        Si     0.894250000000     0.900000000000     0.620833333333     0          
T        Si     0.890650000000     0.900000000000     0.404466666667     0          
T        Si     0.890900000000     0.900000000000     0.493033333333     0          
O        O      0.747750000000     0.900000000000     0.622900000000     0          
O        O      0.702100000000     0.850020000000     0.585966666667     0          
O        O      0.706200000000     0.900000000000     0.650333333333     0          
O        O      0.708700000000     0.950000000000     0.380800000000     0          
O        O      0.578000000000     0.900000000000     0.476333333333     0          
O        O      0.592350000000     0.900000000000     0.413500000000     0          
O        O      0.578300000000     0.900000000000     0.597366666667     0          
O        O      0.581300000000     0.900000000000     0.337666666667     0          
O        O      0.624600000000     0.849980000000     0.382833333333     0          
O        O      0.608100000000     0.900000000000     0.550733333333     0          
T        Si     0.714500000000     0.900000000000     0.611333333333     0          
T        Si     0.718950000000     0.900000000000     0.363900000000     0          
T        Si     0.566450000000     0.900000000000     0.429366666667     0          
T        Si     0.560550000000     0.900000000000     0.626700000000     0          
T        Si     0.605750000000     0.900000000000     0.379166666667     0          
T        Si     0.609350000000     0.900000000000     0.595533333333     0          
T        Si     0.609100000000     0.900000000000     0.506966666667     0          
O        O      0.702100000000     0.949980000000     0.585966666667     0          
O        O      0.708700000000     0.850000000000     0.380800000000     0          
O        O      0.624600000000     0.950020000000     0.382833333333     0          
O        O      0.797900000000     0.949980000000     0.414033333333     0          
O        O      0.791300000000     0.850000000000     0.619200000000     0          
O        O      0.875400000000     0.950020000000     0.617166666667     0          
O        O      0.502250000000     0.800000000000     0.710433333333     0          
O        O      0.547900000000     0.950020000000     0.747366666667     0          
O        O      0.543800000000     0.800000000000     0.683000000000     0          
O        O      0.541300000000     0.850000000000     0.952533333333     0          
O        O      0.672000000000     0.800000000000     0.857000000000     0          
O        O      0.657650000000     0.800000000000     0.919833333333     0          
O        O      0.671700000000     0.800000000000     0.735966666667     0          
O        O      0.668700000000     0.800000000000     0.995666666667     0          
O        O      0.625400000000     0.949980000000     0.950500000000     0          
O        O      0.641900000000     0.800000000000     0.782600000000     0          
O        O      0.625000000000     0.950000000000     0.833333333333     0          
T        Si     0.535500000000     0.800000000000     0.722000000000     0          
T        Si     0.531050000000     0.800000000000     0.969433333333     0          
T        Si     0.683550000000     0.800000000000     0.903966666667     0          
T        Si     0.689450000000     0.800000000000     0.706633333333     0          
T        Si     0.644250000000     0.800000000000     0.954166666667     0          
T        Si     0.640650000000     0.800000000000     0.737800000000     0          
T        Si     0.640900000000     0.800000000000     0.826366666667     0          
O        O      0.997750000000     0.800000000000     0.956233333333     0          
O        O      0.952100000000     0.950020000000     0.919300000000     0          
O        O      0.956200000000     0.800000000000     0.983666666667     0          
O        O      0.958700000000     0.850000000000     0.714133333333     0          
O        O      0.828000000000     0.800000000000     0.809666666667     0          
O        O      0.842350000000     0.800000000000     0.746833333333     0          
O        O      0.828300000000     0.800000000000     0.930700000000     0          
O        O      0.831300000000     0.800000000000     0.671000000000     0          
O        O      0.874600000000     0.949980000000     0.716166666667     0          
O        O      0.858100000000     0.800000000000     0.884066666667     0          
O        O      0.875000000000     0.950000000000     0.833333333333     0          
T        Si     0.964500000000     0.800000000000     0.944666666667     0          
T        Si     0.968950000000     0.800000000000     0.697233333333     0          
T        Si     0.816450000000     0.800000000000     0.762700000000     0          
T        Si     0.810550000000     0.800000000000     0.960033333333     0          
T        Si     0.855750000000     0.800000000000     0.712500000000     0          
T        Si     0.859350000000     0.800000000000     0.928866666667     0          
T        Si     0.859100000000     0.800000000000     0.840300000000     0          
O        O      0.952100000000     0.849980000000     0.919300000000     0          
O        O      0.958700000000     0.950000000000     0.714133333333     0          
O        O      0.874600000000     0.850020000000     0.716166666667     0          
O        O      0.875000000000     0.850000000000     0.833333333333     0          
O        O      0.547900000000     0.849980000000     0.747366666667     0          
O        O      0.541300000000     0.950000000000     0.952533333333     0          
O        O      0.625400000000     0.850020000000     0.950500000000     0          
O        O      0.625000000000     0.850000000000     0.833333333333     0          
O        O      0.752250000000     0.900000000000     0.710433333333     0          
O        O      0.797900000000     0.850020000000     0.747366666667     0          
O        O      0.793800000000     0.900000000000     0.683000000000     0          
O        O      0.791300000000     0.950000000000     0.952533333333     0          
O        O      0.922000000000     0.900000000000     0.857000000000     0          
O        O      0.907650000000     0.900000000000     0.919833333333     0          
O        O      0.921700000000     0.900000000000     0.735966666667     0          
O        O      0.918700000000     0.900000000000     0.995666666667     0          
O        O      0.875400000000     0.849980000000     0.950500000000     0          
O        O      0.891900000000     0.900000000000     0.782600000000     0          
T        Si     0.785500000000     0.900000000000     0.722000000000     0          
T        Si     0.781050000000     0.900000000000     0.969433333333     0          
T        Si     0.933550000000     0.900000000000     0.903966666667     0          
T        Si     0.939450000000     0.900000000000     0.706633333333     0          
T        Si     0.894250000000     0.900000000000     0.954166666667     0          
T        Si     0.890650000000     0.900000000000     0.737800000000     0          
T        Si     0.890900000000     0.900000000000     0.826366666667     0          
O        O      0.747750000000     0.900000000000     0.956233333333     0          
O        O      0.702100000000     0.850020000000     0.919300000000     0          
O        O      0.706200000000     0.900000000000     0.983666666667     0          
O        O      0.708700000000     0.950000000000     0.714133333333     0          
O        O      0.578000000000     0.900000000000     0.809666666667     0          
O        O      0.592350000000     0.900000000000     0.746833333333     0          
O        O      0.578300000000     0.900000000000     0.930700000000     0          
O        O      0.581300000000     0.900000000000     0.671000000000     0          
O        O      0.624600000000     0.849980000000     0.716166666667     0          
O        O      0.608100000000     0.900000000000     0.884066666667     0          
T        Si     0.714500000000     0.900000000000     0.944666666667     0          
T        Si     0.718950000000     0.900000000000     0.697233333333     0          
T        Si     0.566450000000     0.900000000000     0.762700000000     0          
T        Si     0.560550000000     0.900000000000     0.960033333333     0          
T        Si     0.605750000000     0.900000000000     0.712500000000     0          
T        Si     0.609350000000     0.900000000000     0.928866666667     0          
T        Si     0.609100000000     0.900000000000     0.840300000000     0          
O        O      0.702100000000     0.949980000000     0.919300000000     0          
O        O      0.708700000000     0.850000000000     0.714133333333     0          
O        O      0.624600000000     0.950020000000     0.716166666667     0          
O        O      0.797900000000     0.949980000000     0.747366666667     0          
O        O      0.791300000000     0.850000000000     0.952533333333     0          
O        O      0.875400000000     0.950020000000     0.950500000000     0          


