data_zeolite

_audit_creation_method RASPA-1.0
_audit_creation_date 2021-6-8
_audit_author_name ''

_cell_length_a    41.016
_cell_length_b    41.016
_cell_length_c    29.55
_cell_angle_alpha 90
_cell_angle_beta  90
_cell_angle_gamma 120
_cell_volume      43052.1

_symmetry_cell_setting          hexagonal
_symmetry_space_group_name_Hall 'P 1'
_symmetry_space_group_name_H-M  'P 1'
_symmetry_Int_Tables_number     1

_symmetry_equiv_pos_as_xyz 'x,y,z'

loop_
_atom_site_label
_atom_site_type_symbol
_atom_site_fract_x
_atom_site_fract_y
_atom_site_fract_z
_atom_site_charge
O        O      0.189600000000     0.045833333333     0.021866666667     0          
O        O      0.118833333333     0.000000000000     0.000000000000     0          
O        O      0.136466666667     0.025066666667     0.083333333333     0          
O        O      0.141966666667     0.070966666667     0.017866666667     0          
T        Si     0.146766666667     0.035466666667     0.030800000000     0          
O        O      0.143766666667     0.189600000000     0.188533333333     0          
O        O      0.118833333333     0.118833333333     0.166666666667     0          
O        O      0.111400000000     0.136466666667     0.250000000000     0          
O        O      0.071000000000     0.141966666667     0.184533333333     0          
T        Si     0.111300000000     0.146766666667     0.197466666667     0          
O        O      0.287500000000     0.143766666667     0.021866666667     0          
O        O      0.000000000000     0.118833333333     0.000000000000     0          
O        O      0.308266666667     0.111400000000     0.083333333333     0          
O        O      0.262366666667     0.071000000000     0.017866666667     0          
T        Si     0.297866666667     0.111300000000     0.030800000000     0          
O        O      0.143733333333     0.287500000000     0.188533333333     0          
O        O      0.214500000000     0.000000000000     0.166666666667     0          
O        O      0.196866666667     0.308266666667     0.250000000000     0          
O        O      0.191366666667     0.262366666667     0.184533333333     0          
T        Si     0.186566666667     0.297866666667     0.197466666667     0          
O        O      0.189566666667     0.143733333333     0.021866666667     0          
O        O      0.214500000000     0.214500000000     0.000000000000     0          
O        O      0.221933333333     0.196866666667     0.083333333333     0          
O        O      0.262333333333     0.191366666667     0.017866666667     0          
T        Si     0.222033333333     0.186566666667     0.030800000000     0          
O        O      0.045833333333     0.189566666667     0.188533333333     0          
O        O      0.000000000000     0.214500000000     0.166666666667     0          
O        O      0.025066666667     0.221933333333     0.250000000000     0          
O        O      0.070966666667     0.262333333333     0.184533333333     0          
T        Si     0.035466666667     0.222033333333     0.197466666667     0          
O        O      0.287500000000     0.143733333333     0.144800000000     0          
O        O      0.308266666667     0.196866666667     0.083333333333     0          
O        O      0.262366666667     0.191366666667     0.148800000000     0          
T        Si     0.297866666667     0.186566666667     0.135866666667     0          
O        O      0.143766666667     0.287500000000     0.311466666667     0          
O        O      0.111400000000     0.308266666667     0.250000000000     0          
O        O      0.071000000000     0.262366666667     0.315466666667     0          
T        Si     0.111300000000     0.297866666667     0.302533333333     0          
O        O      0.189600000000     0.143766666667     0.144800000000     0          
O        O      0.136466666667     0.111400000000     0.083333333333     0          
O        O      0.141966666667     0.071000000000     0.148800000000     0          
T        Si     0.146766666667     0.111300000000     0.135866666667     0          
O        O      0.045833333333     0.189600000000     0.311466666667     0          
O        O      0.025066666667     0.136466666667     0.250000000000     0          
O        O      0.070966666667     0.141966666667     0.315466666667     0          
T        Si     0.035466666667     0.146766666667     0.302533333333     0          
O        O      0.189566666667     0.045833333333     0.144800000000     0          
O        O      0.221933333333     0.025066666667     0.083333333333     0          
O        O      0.262333333333     0.070966666667     0.148800000000     0          
T        Si     0.222033333333     0.035466666667     0.135866666667     0          
O        O      0.143733333333     0.189566666667     0.311466666667     0          
O        O      0.196866666667     0.221933333333     0.250000000000     0          
O        O      0.191366666667     0.262333333333     0.315466666667     0          
T        Si     0.186566666667     0.222033333333     0.302533333333     0          
O        O      0.214500000000     0.000000000000     0.000000000000     0          
T        Si     0.186566666667     0.297866666667     0.302533333333     0          
O        O      0.214500000000     0.214500000000     0.166666666667     0          
T        Si     0.222033333333     0.186566666667     0.135866666667     0          
O        O      0.000000000000     0.214500000000     0.000000000000     0          
T        Si     0.035466666667     0.222033333333     0.302533333333     0          
O        O      0.118833333333     0.000000000000     0.166666666667     0          
T        Si     0.146766666667     0.035466666667     0.135866666667     0          
O        O      0.118833333333     0.118833333333     0.000000000000     0          
T        Si     0.111300000000     0.146766666667     0.302533333333     0          
O        O      0.000000000000     0.118833333333     0.166666666667     0          
T        Si     0.297866666667     0.111300000000     0.135866666667     0          
T        Si     0.035466666667     0.146766666667     0.197466666667     0          
T        Si     0.222033333333     0.035466666667     0.030800000000     0          
T        Si     0.186566666667     0.222033333333     0.197466666667     0          
T        Si     0.297866666667     0.186566666667     0.030800000000     0          
T        Si     0.111300000000     0.297866666667     0.197466666667     0          
T        Si     0.146766666667     0.111300000000     0.030800000000     0          
O        O      0.189600000000     0.045833333333     0.355200000000     0          
O        O      0.118833333333     0.000000000000     0.333333333333     0          
O        O      0.136466666667     0.025066666667     0.416666666667     0          
O        O      0.141966666667     0.070966666667     0.351200000000     0          
T        Si     0.146766666667     0.035466666667     0.364133333333     0          
O        O      0.143766666667     0.189600000000     0.521866666667     0          
O        O      0.118833333333     0.118833333333     0.500000000000     0          
O        O      0.111400000000     0.136466666667     0.583333333333     0          
O        O      0.071000000000     0.141966666667     0.517866666667     0          
T        Si     0.111300000000     0.146766666667     0.530800000000     0          
O        O      0.287500000000     0.143766666667     0.355200000000     0          
O        O      0.000000000000     0.118833333333     0.333333333333     0          
O        O      0.308266666667     0.111400000000     0.416666666667     0          
O        O      0.262366666667     0.071000000000     0.351200000000     0          
T        Si     0.297866666667     0.111300000000     0.364133333333     0          
O        O      0.143733333333     0.287500000000     0.521866666667     0          
O        O      0.214500000000     0.000000000000     0.500000000000     0          
O        O      0.196866666667     0.308266666667     0.583333333333     0          
O        O      0.191366666667     0.262366666667     0.517866666667     0          
T        Si     0.186566666667     0.297866666667     0.530800000000     0          
O        O      0.189566666667     0.143733333333     0.355200000000     0          
O        O      0.214500000000     0.214500000000     0.333333333333     0          
O        O      0.221933333333     0.196866666667     0.416666666667     0          
O        O      0.262333333333     0.191366666667     0.351200000000     0          
T        Si     0.222033333333     0.186566666667     0.364133333333     0          
O        O      0.045833333333     0.189566666667     0.521866666667     0          
O        O      0.000000000000     0.214500000000     0.500000000000     0          
O        O      0.025066666667     0.221933333333     0.583333333333     0          
O        O      0.070966666667     0.262333333333     0.517866666667     0          
T        Si     0.035466666667     0.222033333333     0.530800000000     0          
O        O      0.287500000000     0.143733333333     0.478133333333     0          
O        O      0.308266666667     0.196866666667     0.416666666667     0          
O        O      0.262366666667     0.191366666667     0.482133333333     0          
T        Si     0.297866666667     0.186566666667     0.469200000000     0          
O        O      0.143766666667     0.287500000000     0.644800000000     0          
O        O      0.111400000000     0.308266666667     0.583333333333     0          
O        O      0.071000000000     0.262366666667     0.648800000000     0          
T        Si     0.111300000000     0.297866666667     0.635866666667     0          
O        O      0.189600000000     0.143766666667     0.478133333333     0          
O        O      0.136466666667     0.111400000000     0.416666666667     0          
O        O      0.141966666667     0.071000000000     0.482133333333     0          
T        Si     0.146766666667     0.111300000000     0.469200000000     0          
O        O      0.045833333333     0.189600000000     0.644800000000     0          
O        O      0.025066666667     0.136466666667     0.583333333333     0          
O        O      0.070966666667     0.141966666667     0.648800000000     0          
T        Si     0.035466666667     0.146766666667     0.635866666667     0          
O        O      0.189566666667     0.045833333333     0.478133333333     0          
O        O      0.221933333333     0.025066666667     0.416666666667     0          
O        O      0.262333333333     0.070966666667     0.482133333333     0          
T        Si     0.222033333333     0.035466666667     0.469200000000     0          
O        O      0.143733333333     0.189566666667     0.644800000000     0          
O        O      0.196866666667     0.221933333333     0.583333333333     0          
O        O      0.191366666667     0.262333333333     0.648800000000     0          
T        Si     0.186566666667     0.222033333333     0.635866666667     0          
O        O      0.214500000000     0.000000000000     0.333333333333     0          
T        Si     0.186566666667     0.297866666667     0.635866666667     0          
O        O      0.214500000000     0.214500000000     0.500000000000     0          
T        Si     0.222033333333     0.186566666667     0.469200000000     0          
O        O      0.000000000000     0.214500000000     0.333333333333     0          
T        Si     0.035466666667     0.222033333333     0.635866666667     0          
O        O      0.118833333333     0.000000000000     0.500000000000     0          
T        Si     0.146766666667     0.035466666667     0.469200000000     0          
O        O      0.118833333333     0.118833333333     0.333333333333     0          
T        Si     0.111300000000     0.146766666667     0.635866666667     0          
O        O      0.000000000000     0.118833333333     0.500000000000     0          
T        Si     0.297866666667     0.111300000000     0.469200000000     0          
T        Si     0.035466666667     0.146766666667     0.530800000000     0          
T        Si     0.222033333333     0.035466666667     0.364133333333     0          
T        Si     0.186566666667     0.222033333333     0.530800000000     0          
T        Si     0.297866666667     0.186566666667     0.364133333333     0          
T        Si     0.111300000000     0.297866666667     0.530800000000     0          
T        Si     0.146766666667     0.111300000000     0.364133333333     0          
O        O      0.189600000000     0.045833333333     0.688533333333     0          
O        O      0.118833333333     0.000000000000     0.666666666667     0          
O        O      0.136466666667     0.025066666667     0.750000000000     0          
O        O      0.141966666667     0.070966666667     0.684533333333     0          
T        Si     0.146766666667     0.035466666667     0.697466666667     0          
O        O      0.143766666667     0.189600000000     0.855200000000     0          
O        O      0.118833333333     0.118833333333     0.833333333333     0          
O        O      0.111400000000     0.136466666667     0.916666666667     0          
O        O      0.071000000000     0.141966666667     0.851200000000     0          
T        Si     0.111300000000     0.146766666667     0.864133333333     0          
O        O      0.287500000000     0.143766666667     0.688533333333     0          
O        O      0.000000000000     0.118833333333     0.666666666667     0          
O        O      0.308266666667     0.111400000000     0.750000000000     0          
O        O      0.262366666667     0.071000000000     0.684533333333     0          
T        Si     0.297866666667     0.111300000000     0.697466666667     0          
O        O      0.143733333333     0.287500000000     0.855200000000     0          
O        O      0.214500000000     0.000000000000     0.833333333333     0          
O        O      0.196866666667     0.308266666667     0.916666666667     0          
O        O      0.191366666667     0.262366666667     0.851200000000     0          
T        Si     0.186566666667     0.297866666667     0.864133333333     0          
O        O      0.189566666667     0.143733333333     0.688533333333     0          
O        O      0.214500000000     0.214500000000     0.666666666667     0          
O        O      0.221933333333     0.196866666667     0.750000000000     0          
O        O      0.262333333333     0.191366666667     0.684533333333     0          
T        Si     0.222033333333     0.186566666667     0.697466666667     0          
O        O      0.045833333333     0.189566666667     0.855200000000     0          
O        O      0.000000000000     0.214500000000     0.833333333333     0          
O        O      0.025066666667     0.221933333333     0.916666666667     0          
O        O      0.070966666667     0.262333333333     0.851200000000     0          
T        Si     0.035466666667     0.222033333333     0.864133333333     0          
O        O      0.287500000000     0.143733333333     0.811466666667     0          
O        O      0.308266666667     0.196866666667     0.750000000000     0          
O        O      0.262366666667     0.191366666667     0.815466666667     0          
T        Si     0.297866666667     0.186566666667     0.802533333333     0          
O        O      0.143766666667     0.287500000000     0.978133333333     0          
O        O      0.111400000000     0.308266666667     0.916666666667     0          
O        O      0.071000000000     0.262366666667     0.982133333333     0          
T        Si     0.111300000000     0.297866666667     0.969200000000     0          
O        O      0.189600000000     0.143766666667     0.811466666667     0          
O        O      0.136466666667     0.111400000000     0.750000000000     0          
O        O      0.141966666667     0.071000000000     0.815466666667     0          
T        Si     0.146766666667     0.111300000000     0.802533333333     0          
O        O      0.045833333333     0.189600000000     0.978133333333     0          
O        O      0.025066666667     0.136466666667     0.916666666667     0          
O        O      0.070966666667     0.141966666667     0.982133333333     0          
T        Si     0.035466666667     0.146766666667     0.969200000000     0          
O        O      0.189566666667     0.045833333333     0.811466666667     0          
O        O      0.221933333333     0.025066666667     0.750000000000     0          
O        O      0.262333333333     0.070966666667     0.815466666667     0          
T        Si     0.222033333333     0.035466666667     0.802533333333     0          
O        O      0.143733333333     0.189566666667     0.978133333333     0          
O        O      0.196866666667     0.221933333333     0.916666666667     0          
O        O      0.191366666667     0.262333333333     0.982133333333     0          
T        Si     0.186566666667     0.222033333333     0.969200000000     0          
O        O      0.214500000000     0.000000000000     0.666666666667     0          
T        Si     0.186566666667     0.297866666667     0.969200000000     0          
O        O      0.214500000000     0.214500000000     0.833333333333     0          
T        Si     0.222033333333     0.186566666667     0.802533333333     0          
O        O      0.000000000000     0.214500000000     0.666666666667     0          
T        Si     0.035466666667     0.222033333333     0.969200000000     0          
O        O      0.118833333333     0.000000000000     0.833333333333     0          
T        Si     0.146766666667     0.035466666667     0.802533333333     0          
O        O      0.118833333333     0.118833333333     0.666666666667     0          
T        Si     0.111300000000     0.146766666667     0.969200000000     0          
O        O      0.000000000000     0.118833333333     0.833333333333     0          
T        Si     0.297866666667     0.111300000000     0.802533333333     0          
T        Si     0.035466666667     0.146766666667     0.864133333333     0          
T        Si     0.222033333333     0.035466666667     0.697466666667     0          
T        Si     0.186566666667     0.222033333333     0.864133333333     0          
T        Si     0.297866666667     0.186566666667     0.697466666667     0          
T        Si     0.111300000000     0.297866666667     0.864133333333     0          
T        Si     0.146766666667     0.111300000000     0.697466666667     0          
O        O      0.189600000000     0.379166666667     0.021866666667     0          
O        O      0.118833333333     0.333333333333     0.000000000000     0          
O        O      0.136466666667     0.358400000000     0.083333333333     0          
O        O      0.141966666667     0.404300000000     0.017866666667     0          
T        Si     0.146766666667     0.368800000000     0.030800000000     0          
O        O      0.143766666667     0.522933333333     0.188533333333     0          
O        O      0.118833333333     0.452166666667     0.166666666667     0          
O        O      0.111400000000     0.469800000000     0.250000000000     0          
O        O      0.071000000000     0.475300000000     0.184533333333     0          
T        Si     0.111300000000     0.480100000000     0.197466666667     0          
O        O      0.287500000000     0.477100000000     0.021866666667     0          
O        O      0.000000000000     0.452166666667     0.000000000000     0          
O        O      0.308266666667     0.444733333333     0.083333333333     0          
O        O      0.262366666667     0.404333333333     0.017866666667     0          
T        Si     0.297866666667     0.444633333333     0.030800000000     0          
O        O      0.143733333333     0.620833333333     0.188533333333     0          
O        O      0.214500000000     0.333333333333     0.166666666667     0          
O        O      0.196866666667     0.641600000000     0.250000000000     0          
O        O      0.191366666667     0.595700000000     0.184533333333     0          
T        Si     0.186566666667     0.631200000000     0.197466666667     0          
O        O      0.189566666667     0.477066666667     0.021866666667     0          
O        O      0.214500000000     0.547833333333     0.000000000000     0          
O        O      0.221933333333     0.530200000000     0.083333333333     0          
O        O      0.262333333333     0.524700000000     0.017866666667     0          
T        Si     0.222033333333     0.519900000000     0.030800000000     0          
O        O      0.045833333333     0.522900000000     0.188533333333     0          
O        O      0.000000000000     0.547833333333     0.166666666667     0          
O        O      0.025066666667     0.555266666667     0.250000000000     0          
O        O      0.070966666667     0.595666666667     0.184533333333     0          
T        Si     0.035466666667     0.555366666667     0.197466666667     0          
O        O      0.287500000000     0.477066666667     0.144800000000     0          
O        O      0.308266666667     0.530200000000     0.083333333333     0          
O        O      0.262366666667     0.524700000000     0.148800000000     0          
T        Si     0.297866666667     0.519900000000     0.135866666667     0          
O        O      0.143766666667     0.620833333333     0.311466666667     0          
O        O      0.111400000000     0.641600000000     0.250000000000     0          
O        O      0.071000000000     0.595700000000     0.315466666667     0          
T        Si     0.111300000000     0.631200000000     0.302533333333     0          
O        O      0.189600000000     0.477100000000     0.144800000000     0          
O        O      0.136466666667     0.444733333333     0.083333333333     0          
O        O      0.141966666667     0.404333333333     0.148800000000     0          
T        Si     0.146766666667     0.444633333333     0.135866666667     0          
O        O      0.045833333333     0.522933333333     0.311466666667     0          
O        O      0.025066666667     0.469800000000     0.250000000000     0          
O        O      0.070966666667     0.475300000000     0.315466666667     0          
T        Si     0.035466666667     0.480100000000     0.302533333333     0          
O        O      0.189566666667     0.379166666667     0.144800000000     0          
O        O      0.221933333333     0.358400000000     0.083333333333     0          
O        O      0.262333333333     0.404300000000     0.148800000000     0          
T        Si     0.222033333333     0.368800000000     0.135866666667     0          
O        O      0.143733333333     0.522900000000     0.311466666667     0          
O        O      0.196866666667     0.555266666667     0.250000000000     0          
O        O      0.191366666667     0.595666666667     0.315466666667     0          
T        Si     0.186566666667     0.555366666667     0.302533333333     0          
O        O      0.214500000000     0.333333333333     0.000000000000     0          
T        Si     0.186566666667     0.631200000000     0.302533333333     0          
O        O      0.214500000000     0.547833333333     0.166666666667     0          
T        Si     0.222033333333     0.519900000000     0.135866666667     0          
O        O      0.000000000000     0.547833333333     0.000000000000     0          
T        Si     0.035466666667     0.555366666667     0.302533333333     0          
O        O      0.118833333333     0.333333333333     0.166666666667     0          
T        Si     0.146766666667     0.368800000000     0.135866666667     0          
O        O      0.118833333333     0.452166666667     0.000000000000     0          
T        Si     0.111300000000     0.480100000000     0.302533333333     0          
O        O      0.000000000000     0.452166666667     0.166666666667     0          
T        Si     0.297866666667     0.444633333333     0.135866666667     0          
T        Si     0.035466666667     0.480100000000     0.197466666667     0          
T        Si     0.222033333333     0.368800000000     0.030800000000     0          
T        Si     0.186566666667     0.555366666667     0.197466666667     0          
T        Si     0.297866666667     0.519900000000     0.030800000000     0          
T        Si     0.111300000000     0.631200000000     0.197466666667     0          
T        Si     0.146766666667     0.444633333333     0.030800000000     0          
O        O      0.189600000000     0.379166666667     0.355200000000     0          
O        O      0.118833333333     0.333333333333     0.333333333333     0          
O        O      0.136466666667     0.358400000000     0.416666666667     0          
O        O      0.141966666667     0.404300000000     0.351200000000     0          
T        Si     0.146766666667     0.368800000000     0.364133333333     0          
O        O      0.143766666667     0.522933333333     0.521866666667     0          
O        O      0.118833333333     0.452166666667     0.500000000000     0          
O        O      0.111400000000     0.469800000000     0.583333333333     0          
O        O      0.071000000000     0.475300000000     0.517866666667     0          
T        Si     0.111300000000     0.480100000000     0.530800000000     0          
O        O      0.287500000000     0.477100000000     0.355200000000     0          
O        O      0.000000000000     0.452166666667     0.333333333333     0          
O        O      0.308266666667     0.444733333333     0.416666666667     0          
O        O      0.262366666667     0.404333333333     0.351200000000     0          
T        Si     0.297866666667     0.444633333333     0.364133333333     0          
O        O      0.143733333333     0.620833333333     0.521866666667     0          
O        O      0.214500000000     0.333333333333     0.500000000000     0          
O        O      0.196866666667     0.641600000000     0.583333333333     0          
O        O      0.191366666667     0.595700000000     0.517866666667     0          
T        Si     0.186566666667     0.631200000000     0.530800000000     0          
O        O      0.189566666667     0.477066666667     0.355200000000     0          
O        O      0.214500000000     0.547833333333     0.333333333333     0          
O        O      0.221933333333     0.530200000000     0.416666666667     0          
O        O      0.262333333333     0.524700000000     0.351200000000     0          
T        Si     0.222033333333     0.519900000000     0.364133333333     0          
O        O      0.045833333333     0.522900000000     0.521866666667     0          
O        O      0.000000000000     0.547833333333     0.500000000000     0          
O        O      0.025066666667     0.555266666667     0.583333333333     0          
O        O      0.070966666667     0.595666666667     0.517866666667     0          
T        Si     0.035466666667     0.555366666667     0.530800000000     0          
O        O      0.287500000000     0.477066666667     0.478133333333     0          
O        O      0.308266666667     0.530200000000     0.416666666667     0          
O        O      0.262366666667     0.524700000000     0.482133333333     0          
T        Si     0.297866666667     0.519900000000     0.469200000000     0          
O        O      0.143766666667     0.620833333333     0.644800000000     0          
O        O      0.111400000000     0.641600000000     0.583333333333     0          
O        O      0.071000000000     0.595700000000     0.648800000000     0          
T        Si     0.111300000000     0.631200000000     0.635866666667     0          
O        O      0.189600000000     0.477100000000     0.478133333333     0          
O        O      0.136466666667     0.444733333333     0.416666666667     0          
O        O      0.141966666667     0.404333333333     0.482133333333     0          
T        Si     0.146766666667     0.444633333333     0.469200000000     0          
O        O      0.045833333333     0.522933333333     0.644800000000     0          
O        O      0.025066666667     0.469800000000     0.583333333333     0          
O        O      0.070966666667     0.475300000000     0.648800000000     0          
T        Si     0.035466666667     0.480100000000     0.635866666667     0          
O        O      0.189566666667     0.379166666667     0.478133333333     0          
O        O      0.221933333333     0.358400000000     0.416666666667     0          
O        O      0.262333333333     0.404300000000     0.482133333333     0          
T        Si     0.222033333333     0.368800000000     0.469200000000     0          
O        O      0.143733333333     0.522900000000     0.644800000000     0          
O        O      0.196866666667     0.555266666667     0.583333333333     0          
O        O      0.191366666667     0.595666666667     0.648800000000     0          
T        Si     0.186566666667     0.555366666667     0.635866666667     0          
O        O      0.214500000000     0.333333333333     0.333333333333     0          
T        Si     0.186566666667     0.631200000000     0.635866666667     0          
O        O      0.214500000000     0.547833333333     0.500000000000     0          
T        Si     0.222033333333     0.519900000000     0.469200000000     0          
O        O      0.000000000000     0.547833333333     0.333333333333     0          
T        Si     0.035466666667     0.555366666667     0.635866666667     0          
O        O      0.118833333333     0.333333333333     0.500000000000     0          
T        Si     0.146766666667     0.368800000000     0.469200000000     0          
O        O      0.118833333333     0.452166666667     0.333333333333     0          
T        Si     0.111300000000     0.480100000000     0.635866666667     0          
O        O      0.000000000000     0.452166666667     0.500000000000     0          
T        Si     0.297866666667     0.444633333333     0.469200000000     0          
T        Si     0.035466666667     0.480100000000     0.530800000000     0          
T        Si     0.222033333333     0.368800000000     0.364133333333     0          
T        Si     0.186566666667     0.555366666667     0.530800000000     0          
T        Si     0.297866666667     0.519900000000     0.364133333333     0          
T        Si     0.111300000000     0.631200000000     0.530800000000     0          
T        Si     0.146766666667     0.444633333333     0.364133333333     0          
O        O      0.189600000000     0.379166666667     0.688533333333     0          
O        O      0.118833333333     0.333333333333     0.666666666667     0          
O        O      0.136466666667     0.358400000000     0.750000000000     0          
O        O      0.141966666667     0.404300000000     0.684533333333     0          
T        Si     0.146766666667     0.368800000000     0.697466666667     0          
O        O      0.143766666667     0.522933333333     0.855200000000     0          
O        O      0.118833333333     0.452166666667     0.833333333333     0          
O        O      0.111400000000     0.469800000000     0.916666666667     0          
O        O      0.071000000000     0.475300000000     0.851200000000     0          
T        Si     0.111300000000     0.480100000000     0.864133333333     0          
O        O      0.287500000000     0.477100000000     0.688533333333     0          
O        O      0.000000000000     0.452166666667     0.666666666667     0          
O        O      0.308266666667     0.444733333333     0.750000000000     0          
O        O      0.262366666667     0.404333333333     0.684533333333     0          
T        Si     0.297866666667     0.444633333333     0.697466666667     0          
O        O      0.143733333333     0.620833333333     0.855200000000     0          
O        O      0.214500000000     0.333333333333     0.833333333333     0          
O        O      0.196866666667     0.641600000000     0.916666666667     0          
O        O      0.191366666667     0.595700000000     0.851200000000     0          
T        Si     0.186566666667     0.631200000000     0.864133333333     0          
O        O      0.189566666667     0.477066666667     0.688533333333     0          
O        O      0.214500000000     0.547833333333     0.666666666667     0          
O        O      0.221933333333     0.530200000000     0.750000000000     0          
O        O      0.262333333333     0.524700000000     0.684533333333     0          
T        Si     0.222033333333     0.519900000000     0.697466666667     0          
O        O      0.045833333333     0.522900000000     0.855200000000     0          
O        O      0.000000000000     0.547833333333     0.833333333333     0          
O        O      0.025066666667     0.555266666667     0.916666666667     0          
O        O      0.070966666667     0.595666666667     0.851200000000     0          
T        Si     0.035466666667     0.555366666667     0.864133333333     0          
O        O      0.287500000000     0.477066666667     0.811466666667     0          
O        O      0.308266666667     0.530200000000     0.750000000000     0          
O        O      0.262366666667     0.524700000000     0.815466666667     0          
T        Si     0.297866666667     0.519900000000     0.802533333333     0          
O        O      0.143766666667     0.620833333333     0.978133333333     0          
O        O      0.111400000000     0.641600000000     0.916666666667     0          
O        O      0.071000000000     0.595700000000     0.982133333333     0          
T        Si     0.111300000000     0.631200000000     0.969200000000     0          
O        O      0.189600000000     0.477100000000     0.811466666667     0          
O        O      0.136466666667     0.444733333333     0.750000000000     0          
O        O      0.141966666667     0.404333333333     0.815466666667     0          
T        Si     0.146766666667     0.444633333333     0.802533333333     0          
O        O      0.045833333333     0.522933333333     0.978133333333     0          
O        O      0.025066666667     0.469800000000     0.916666666667     0          
O        O      0.070966666667     0.475300000000     0.982133333333     0          
T        Si     0.035466666667     0.480100000000     0.969200000000     0          
O        O      0.189566666667     0.379166666667     0.811466666667     0          
O        O      0.221933333333     0.358400000000     0.750000000000     0          
O        O      0.262333333333     0.404300000000     0.815466666667     0          
T        Si     0.222033333333     0.368800000000     0.802533333333     0          
O        O      0.143733333333     0.522900000000     0.978133333333     0          
O        O      0.196866666667     0.555266666667     0.916666666667     0          
O        O      0.191366666667     0.595666666667     0.982133333333     0          
T        Si     0.186566666667     0.555366666667     0.969200000000     0          
O        O      0.214500000000     0.333333333333     0.666666666667     0          
T        Si     0.186566666667     0.631200000000     0.969200000000     0          
O        O      0.214500000000     0.547833333333     0.833333333333     0          
T        Si     0.222033333333     0.519900000000     0.802533333333     0          
O        O      0.000000000000     0.547833333333     0.666666666667     0          
T        Si     0.035466666667     0.555366666667     0.969200000000     0          
O        O      0.118833333333     0.333333333333     0.833333333333     0          
T        Si     0.146766666667     0.368800000000     0.802533333333     0          
O        O      0.118833333333     0.452166666667     0.666666666667     0          
T        Si     0.111300000000     0.480100000000     0.969200000000     0          
O        O      0.000000000000     0.452166666667     0.833333333333     0          
T        Si     0.297866666667     0.444633333333     0.802533333333     0          
T        Si     0.035466666667     0.480100000000     0.864133333333     0          
T        Si     0.222033333333     0.368800000000     0.697466666667     0          
T        Si     0.186566666667     0.555366666667     0.864133333333     0          
T        Si     0.297866666667     0.519900000000     0.697466666667     0          
T        Si     0.111300000000     0.631200000000     0.864133333333     0          
T        Si     0.146766666667     0.444633333333     0.697466666667     0          
O        O      0.189600000000     0.712500000000     0.021866666667     0          
O        O      0.118833333333     0.666666666667     0.000000000000     0          
O        O      0.136466666667     0.691733333333     0.083333333333     0          
O        O      0.141966666667     0.737633333333     0.017866666667     0          
T        Si     0.146766666667     0.702133333333     0.030800000000     0          
O        O      0.143766666667     0.856266666667     0.188533333333     0          
O        O      0.118833333333     0.785500000000     0.166666666667     0          
O        O      0.111400000000     0.803133333333     0.250000000000     0          
O        O      0.071000000000     0.808633333333     0.184533333333     0          
T        Si     0.111300000000     0.813433333333     0.197466666667     0          
O        O      0.287500000000     0.810433333333     0.021866666667     0          
O        O      0.000000000000     0.785500000000     0.000000000000     0          
O        O      0.308266666667     0.778066666667     0.083333333333     0          
O        O      0.262366666667     0.737666666667     0.017866666667     0          
T        Si     0.297866666667     0.777966666667     0.030800000000     0          
O        O      0.143733333333     0.954166666667     0.188533333333     0          
O        O      0.214500000000     0.666666666667     0.166666666667     0          
O        O      0.196866666667     0.974933333333     0.250000000000     0          
O        O      0.191366666667     0.929033333333     0.184533333333     0          
T        Si     0.186566666667     0.964533333333     0.197466666667     0          
O        O      0.189566666667     0.810400000000     0.021866666667     0          
O        O      0.214500000000     0.881166666667     0.000000000000     0          
O        O      0.221933333333     0.863533333333     0.083333333333     0          
O        O      0.262333333333     0.858033333333     0.017866666667     0          
T        Si     0.222033333333     0.853233333333     0.030800000000     0          
O        O      0.045833333333     0.856233333333     0.188533333333     0          
O        O      0.000000000000     0.881166666667     0.166666666667     0          
O        O      0.025066666667     0.888600000000     0.250000000000     0          
O        O      0.070966666667     0.929000000000     0.184533333333     0          
T        Si     0.035466666667     0.888700000000     0.197466666667     0          
O        O      0.287500000000     0.810400000000     0.144800000000     0          
O        O      0.308266666667     0.863533333333     0.083333333333     0          
O        O      0.262366666667     0.858033333333     0.148800000000     0          
T        Si     0.297866666667     0.853233333333     0.135866666667     0          
O        O      0.143766666667     0.954166666667     0.311466666667     0          
O        O      0.111400000000     0.974933333333     0.250000000000     0          
O        O      0.071000000000     0.929033333333     0.315466666667     0          
T        Si     0.111300000000     0.964533333333     0.302533333333     0          
O        O      0.189600000000     0.810433333333     0.144800000000     0          
O        O      0.136466666667     0.778066666667     0.083333333333     0          
O        O      0.141966666667     0.737666666667     0.148800000000     0          
T        Si     0.146766666667     0.777966666667     0.135866666667     0          
O        O      0.045833333333     0.856266666667     0.311466666667     0          
O        O      0.025066666667     0.803133333333     0.250000000000     0          
O        O      0.070966666667     0.808633333333     0.315466666667     0          
T        Si     0.035466666667     0.813433333333     0.302533333333     0          
O        O      0.189566666667     0.712500000000     0.144800000000     0          
O        O      0.221933333333     0.691733333333     0.083333333333     0          
O        O      0.262333333333     0.737633333333     0.148800000000     0          
T        Si     0.222033333333     0.702133333333     0.135866666667     0          
O        O      0.143733333333     0.856233333333     0.311466666667     0          
O        O      0.196866666667     0.888600000000     0.250000000000     0          
O        O      0.191366666667     0.929000000000     0.315466666667     0          
T        Si     0.186566666667     0.888700000000     0.302533333333     0          
O        O      0.214500000000     0.666666666667     0.000000000000     0          
T        Si     0.186566666667     0.964533333333     0.302533333333     0          
O        O      0.214500000000     0.881166666667     0.166666666667     0          
T        Si     0.222033333333     0.853233333333     0.135866666667     0          
O        O      0.000000000000     0.881166666667     0.000000000000     0          
T        Si     0.035466666667     0.888700000000     0.302533333333     0          
O        O      0.118833333333     0.666666666667     0.166666666667     0          
T        Si     0.146766666667     0.702133333333     0.135866666667     0          
O        O      0.118833333333     0.785500000000     0.000000000000     0          
T        Si     0.111300000000     0.813433333333     0.302533333333     0          
O        O      0.000000000000     0.785500000000     0.166666666667     0          
T        Si     0.297866666667     0.777966666667     0.135866666667     0          
T        Si     0.035466666667     0.813433333333     0.197466666667     0          
T        Si     0.222033333333     0.702133333333     0.030800000000     0          
T        Si     0.186566666667     0.888700000000     0.197466666667     0          
T        Si     0.297866666667     0.853233333333     0.030800000000     0          
T        Si     0.111300000000     0.964533333333     0.197466666667     0          
T        Si     0.146766666667     0.777966666667     0.030800000000     0          
O        O      0.189600000000     0.712500000000     0.355200000000     0          
O        O      0.118833333333     0.666666666667     0.333333333333     0          
O        O      0.136466666667     0.691733333333     0.416666666667     0          
O        O      0.141966666667     0.737633333333     0.351200000000     0          
T        Si     0.146766666667     0.702133333333     0.364133333333     0          
O        O      0.143766666667     0.856266666667     0.521866666667     0          
O        O      0.118833333333     0.785500000000     0.500000000000     0          
O        O      0.111400000000     0.803133333333     0.583333333333     0          
O        O      0.071000000000     0.808633333333     0.517866666667     0          
T        Si     0.111300000000     0.813433333333     0.530800000000     0          
O        O      0.287500000000     0.810433333333     0.355200000000     0          
O        O      0.000000000000     0.785500000000     0.333333333333     0          
O        O      0.308266666667     0.778066666667     0.416666666667     0          
O        O      0.262366666667     0.737666666667     0.351200000000     0          
T        Si     0.297866666667     0.777966666667     0.364133333333     0          
O        O      0.143733333333     0.954166666667     0.521866666667     0          
O        O      0.214500000000     0.666666666667     0.500000000000     0          
O        O      0.196866666667     0.974933333333     0.583333333333     0          
O        O      0.191366666667     0.929033333333     0.517866666667     0          
T        Si     0.186566666667     0.964533333333     0.530800000000     0          
O        O      0.189566666667     0.810400000000     0.355200000000     0          
O        O      0.214500000000     0.881166666667     0.333333333333     0          
O        O      0.221933333333     0.863533333333     0.416666666667     0          
O        O      0.262333333333     0.858033333333     0.351200000000     0          
T        Si     0.222033333333     0.853233333333     0.364133333333     0          
O        O      0.045833333333     0.856233333333     0.521866666667     0          
O        O      0.000000000000     0.881166666667     0.500000000000     0          
O        O      0.025066666667     0.888600000000     0.583333333333     0          
O        O      0.070966666667     0.929000000000     0.517866666667     0          
T        Si     0.035466666667     0.888700000000     0.530800000000     0          
O        O      0.287500000000     0.810400000000     0.478133333333     0          
O        O      0.308266666667     0.863533333333     0.416666666667     0          
O        O      0.262366666667     0.858033333333     0.482133333333     0          
T        Si     0.297866666667     0.853233333333     0.469200000000     0          
O        O      0.143766666667     0.954166666667     0.644800000000     0          
O        O      0.111400000000     0.974933333333     0.583333333333     0          
O        O      0.071000000000     0.929033333333     0.648800000000     0          
T        Si     0.111300000000     0.964533333333     0.635866666667     0          
O        O      0.189600000000     0.810433333333     0.478133333333     0          
O        O      0.136466666667     0.778066666667     0.416666666667     0          
O        O      0.141966666667     0.737666666667     0.482133333333     0          
T        Si     0.146766666667     0.777966666667     0.469200000000     0          
O        O      0.045833333333     0.856266666667     0.644800000000     0          
O        O      0.025066666667     0.803133333333     0.583333333333     0          
O        O      0.070966666667     0.808633333333     0.648800000000     0          
T        Si     0.035466666667     0.813433333333     0.635866666667     0          
O        O      0.189566666667     0.712500000000     0.478133333333     0          
O        O      0.221933333333     0.691733333333     0.416666666667     0          
O        O      0.262333333333     0.737633333333     0.482133333333     0          
T        Si     0.222033333333     0.702133333333     0.469200000000     0          
O        O      0.143733333333     0.856233333333     0.644800000000     0          
O        O      0.196866666667     0.888600000000     0.583333333333     0          
O        O      0.191366666667     0.929000000000     0.648800000000     0          
T        Si     0.186566666667     0.888700000000     0.635866666667     0          
O        O      0.214500000000     0.666666666667     0.333333333333     0          
T        Si     0.186566666667     0.964533333333     0.635866666667     0          
O        O      0.214500000000     0.881166666667     0.500000000000     0          
T        Si     0.222033333333     0.853233333333     0.469200000000     0          
O        O      0.000000000000     0.881166666667     0.333333333333     0          
T        Si     0.035466666667     0.888700000000     0.635866666667     0          
O        O      0.118833333333     0.666666666667     0.500000000000     0          
T        Si     0.146766666667     0.702133333333     0.469200000000     0          
O        O      0.118833333333     0.785500000000     0.333333333333     0          
T        Si     0.111300000000     0.813433333333     0.635866666667     0          
O        O      0.000000000000     0.785500000000     0.500000000000     0          
T        Si     0.297866666667     0.777966666667     0.469200000000     0          
T        Si     0.035466666667     0.813433333333     0.530800000000     0          
T        Si     0.222033333333     0.702133333333     0.364133333333     0          
T        Si     0.186566666667     0.888700000000     0.530800000000     0          
T        Si     0.297866666667     0.853233333333     0.364133333333     0          
T        Si     0.111300000000     0.964533333333     0.530800000000     0          
T        Si     0.146766666667     0.777966666667     0.364133333333     0          
O        O      0.189600000000     0.712500000000     0.688533333333     0          
O        O      0.118833333333     0.666666666667     0.666666666667     0          
O        O      0.136466666667     0.691733333333     0.750000000000     0          
O        O      0.141966666667     0.737633333333     0.684533333333     0          
T        Si     0.146766666667     0.702133333333     0.697466666667     0          
O        O      0.143766666667     0.856266666667     0.855200000000     0          
O        O      0.118833333333     0.785500000000     0.833333333333     0          
O        O      0.111400000000     0.803133333333     0.916666666667     0          
O        O      0.071000000000     0.808633333333     0.851200000000     0          
T        Si     0.111300000000     0.813433333333     0.864133333333     0          
O        O      0.287500000000     0.810433333333     0.688533333333     0          
O        O      0.000000000000     0.785500000000     0.666666666667     0          
O        O      0.308266666667     0.778066666667     0.750000000000     0          
O        O      0.262366666667     0.737666666667     0.684533333333     0          
T        Si     0.297866666667     0.777966666667     0.697466666667     0          
O        O      0.143733333333     0.954166666667     0.855200000000     0          
O        O      0.214500000000     0.666666666667     0.833333333333     0          
O        O      0.196866666667     0.974933333333     0.916666666667     0          
O        O      0.191366666667     0.929033333333     0.851200000000     0          
T        Si     0.186566666667     0.964533333333     0.864133333333     0          
O        O      0.189566666667     0.810400000000     0.688533333333     0          
O        O      0.214500000000     0.881166666667     0.666666666667     0          
O        O      0.221933333333     0.863533333333     0.750000000000     0          
O        O      0.262333333333     0.858033333333     0.684533333333     0          
T        Si     0.222033333333     0.853233333333     0.697466666667     0          
O        O      0.045833333333     0.856233333333     0.855200000000     0          
O        O      0.000000000000     0.881166666667     0.833333333333     0          
O        O      0.025066666667     0.888600000000     0.916666666667     0          
O        O      0.070966666667     0.929000000000     0.851200000000     0          
T        Si     0.035466666667     0.888700000000     0.864133333333     0          
O        O      0.287500000000     0.810400000000     0.811466666667     0          
O        O      0.308266666667     0.863533333333     0.750000000000     0          
O        O      0.262366666667     0.858033333333     0.815466666667     0          
T        Si     0.297866666667     0.853233333333     0.802533333333     0          
O        O      0.143766666667     0.954166666667     0.978133333333     0          
O        O      0.111400000000     0.974933333333     0.916666666667     0          
O        O      0.071000000000     0.929033333333     0.982133333333     0          
T        Si     0.111300000000     0.964533333333     0.969200000000     0          
O        O      0.189600000000     0.810433333333     0.811466666667     0          
O        O      0.136466666667     0.778066666667     0.750000000000     0          
O        O      0.141966666667     0.737666666667     0.815466666667     0          
T        Si     0.146766666667     0.777966666667     0.802533333333     0          
O        O      0.045833333333     0.856266666667     0.978133333333     0          
O        O      0.025066666667     0.803133333333     0.916666666667     0          
O        O      0.070966666667     0.808633333333     0.982133333333     0          
T        Si     0.035466666667     0.813433333333     0.969200000000     0          
O        O      0.189566666667     0.712500000000     0.811466666667     0          
O        O      0.221933333333     0.691733333333     0.750000000000     0          
O        O      0.262333333333     0.737633333333     0.815466666667     0          
T        Si     0.222033333333     0.702133333333     0.802533333333     0          
O        O      0.143733333333     0.856233333333     0.978133333333     0          
O        O      0.196866666667     0.888600000000     0.916666666667     0          
O        O      0.191366666667     0.929000000000     0.982133333333     0          
T        Si     0.186566666667     0.888700000000     0.969200000000     0          
O        O      0.214500000000     0.666666666667     0.666666666667     0          
T        Si     0.186566666667     0.964533333333     0.969200000000     0          
O        O      0.214500000000     0.881166666667     0.833333333333     0          
T        Si     0.222033333333     0.853233333333     0.802533333333     0          
O        O      0.000000000000     0.881166666667     0.666666666667     0          
T        Si     0.035466666667     0.888700000000     0.969200000000     0          
O        O      0.118833333333     0.666666666667     0.833333333333     0          
T        Si     0.146766666667     0.702133333333     0.802533333333     0          
O        O      0.118833333333     0.785500000000     0.666666666667     0          
T        Si     0.111300000000     0.813433333333     0.969200000000     0          
O        O      0.000000000000     0.785500000000     0.833333333333     0          
T        Si     0.297866666667     0.777966666667     0.802533333333     0          
T        Si     0.035466666667     0.813433333333     0.864133333333     0          
T        Si     0.222033333333     0.702133333333     0.697466666667     0          
T        Si     0.186566666667     0.888700000000     0.864133333333     0          
T        Si     0.297866666667     0.853233333333     0.697466666667     0          
T        Si     0.111300000000     0.964533333333     0.864133333333     0          
T        Si     0.146766666667     0.777966666667     0.697466666667     0          
O        O      0.522933333333     0.045833333333     0.021866666667     0          
O        O      0.452166666667     0.000000000000     0.000000000000     0          
O        O      0.469800000000     0.025066666667     0.083333333333     0          
O        O      0.475300000000     0.070966666667     0.017866666667     0          
T        Si     0.480100000000     0.035466666667     0.030800000000     0          
O        O      0.477100000000     0.189600000000     0.188533333333     0          
O        O      0.452166666667     0.118833333333     0.166666666667     0          
O        O      0.444733333333     0.136466666667     0.250000000000     0          
O        O      0.404333333333     0.141966666667     0.184533333333     0          
T        Si     0.444633333333     0.146766666667     0.197466666667     0          
O        O      0.620833333333     0.143766666667     0.021866666667     0          
O        O      0.333333333333     0.118833333333     0.000000000000     0          
O        O      0.641600000000     0.111400000000     0.083333333333     0          
O        O      0.595700000000     0.071000000000     0.017866666667     0          
T        Si     0.631200000000     0.111300000000     0.030800000000     0          
O        O      0.477066666667     0.287500000000     0.188533333333     0          
O        O      0.547833333333     0.000000000000     0.166666666667     0          
O        O      0.530200000000     0.308266666667     0.250000000000     0          
O        O      0.524700000000     0.262366666667     0.184533333333     0          
T        Si     0.519900000000     0.297866666667     0.197466666667     0          
O        O      0.522900000000     0.143733333333     0.021866666667     0          
O        O      0.547833333333     0.214500000000     0.000000000000     0          
O        O      0.555266666667     0.196866666667     0.083333333333     0          
O        O      0.595666666667     0.191366666667     0.017866666667     0          
T        Si     0.555366666667     0.186566666667     0.030800000000     0          
O        O      0.379166666667     0.189566666667     0.188533333333     0          
O        O      0.333333333333     0.214500000000     0.166666666667     0          
O        O      0.358400000000     0.221933333333     0.250000000000     0          
O        O      0.404300000000     0.262333333333     0.184533333333     0          
T        Si     0.368800000000     0.222033333333     0.197466666667     0          
O        O      0.620833333333     0.143733333333     0.144800000000     0          
O        O      0.641600000000     0.196866666667     0.083333333333     0          
O        O      0.595700000000     0.191366666667     0.148800000000     0          
T        Si     0.631200000000     0.186566666667     0.135866666667     0          
O        O      0.477100000000     0.287500000000     0.311466666667     0          
O        O      0.444733333333     0.308266666667     0.250000000000     0          
O        O      0.404333333333     0.262366666667     0.315466666667     0          
T        Si     0.444633333333     0.297866666667     0.302533333333     0          
O        O      0.522933333333     0.143766666667     0.144800000000     0          
O        O      0.469800000000     0.111400000000     0.083333333333     0          
O        O      0.475300000000     0.071000000000     0.148800000000     0          
T        Si     0.480100000000     0.111300000000     0.135866666667     0          
O        O      0.379166666667     0.189600000000     0.311466666667     0          
O        O      0.358400000000     0.136466666667     0.250000000000     0          
O        O      0.404300000000     0.141966666667     0.315466666667     0          
T        Si     0.368800000000     0.146766666667     0.302533333333     0          
O        O      0.522900000000     0.045833333333     0.144800000000     0          
O        O      0.555266666667     0.025066666667     0.083333333333     0          
O        O      0.595666666667     0.070966666667     0.148800000000     0          
T        Si     0.555366666667     0.035466666667     0.135866666667     0          
O        O      0.477066666667     0.189566666667     0.311466666667     0          
O        O      0.530200000000     0.221933333333     0.250000000000     0          
O        O      0.524700000000     0.262333333333     0.315466666667     0          
T        Si     0.519900000000     0.222033333333     0.302533333333     0          
O        O      0.547833333333     0.000000000000     0.000000000000     0          
T        Si     0.519900000000     0.297866666667     0.302533333333     0          
O        O      0.547833333333     0.214500000000     0.166666666667     0          
T        Si     0.555366666667     0.186566666667     0.135866666667     0          
O        O      0.333333333333     0.214500000000     0.000000000000     0          
T        Si     0.368800000000     0.222033333333     0.302533333333     0          
O        O      0.452166666667     0.000000000000     0.166666666667     0          
T        Si     0.480100000000     0.035466666667     0.135866666667     0          
O        O      0.452166666667     0.118833333333     0.000000000000     0          
T        Si     0.444633333333     0.146766666667     0.302533333333     0          
O        O      0.333333333333     0.118833333333     0.166666666667     0          
T        Si     0.631200000000     0.111300000000     0.135866666667     0          
T        Si     0.368800000000     0.146766666667     0.197466666667     0          
T        Si     0.555366666667     0.035466666667     0.030800000000     0          
T        Si     0.519900000000     0.222033333333     0.197466666667     0          
T        Si     0.631200000000     0.186566666667     0.030800000000     0          
T        Si     0.444633333333     0.297866666667     0.197466666667     0          
T        Si     0.480100000000     0.111300000000     0.030800000000     0          
O        O      0.522933333333     0.045833333333     0.355200000000     0          
O        O      0.452166666667     0.000000000000     0.333333333333     0          
O        O      0.469800000000     0.025066666667     0.416666666667     0          
O        O      0.475300000000     0.070966666667     0.351200000000     0          
T        Si     0.480100000000     0.035466666667     0.364133333333     0          
O        O      0.477100000000     0.189600000000     0.521866666667     0          
O        O      0.452166666667     0.118833333333     0.500000000000     0          
O        O      0.444733333333     0.136466666667     0.583333333333     0          
O        O      0.404333333333     0.141966666667     0.517866666667     0          
T        Si     0.444633333333     0.146766666667     0.530800000000     0          
O        O      0.620833333333     0.143766666667     0.355200000000     0          
O        O      0.333333333333     0.118833333333     0.333333333333     0          
O        O      0.641600000000     0.111400000000     0.416666666667     0          
O        O      0.595700000000     0.071000000000     0.351200000000     0          
T        Si     0.631200000000     0.111300000000     0.364133333333     0          
O        O      0.477066666667     0.287500000000     0.521866666667     0          
O        O      0.547833333333     0.000000000000     0.500000000000     0          
O        O      0.530200000000     0.308266666667     0.583333333333     0          
O        O      0.524700000000     0.262366666667     0.517866666667     0          
T        Si     0.519900000000     0.297866666667     0.530800000000     0          
O        O      0.522900000000     0.143733333333     0.355200000000     0          
O        O      0.547833333333     0.214500000000     0.333333333333     0          
O        O      0.555266666667     0.196866666667     0.416666666667     0          
O        O      0.595666666667     0.191366666667     0.351200000000     0          
T        Si     0.555366666667     0.186566666667     0.364133333333     0          
O        O      0.379166666667     0.189566666667     0.521866666667     0          
O        O      0.333333333333     0.214500000000     0.500000000000     0          
O        O      0.358400000000     0.221933333333     0.583333333333     0          
O        O      0.404300000000     0.262333333333     0.517866666667     0          
T        Si     0.368800000000     0.222033333333     0.530800000000     0          
O        O      0.620833333333     0.143733333333     0.478133333333     0          
O        O      0.641600000000     0.196866666667     0.416666666667     0          
O        O      0.595700000000     0.191366666667     0.482133333333     0          
T        Si     0.631200000000     0.186566666667     0.469200000000     0          
O        O      0.477100000000     0.287500000000     0.644800000000     0          
O        O      0.444733333333     0.308266666667     0.583333333333     0          
O        O      0.404333333333     0.262366666667     0.648800000000     0          
T        Si     0.444633333333     0.297866666667     0.635866666667     0          
O        O      0.522933333333     0.143766666667     0.478133333333     0          
O        O      0.469800000000     0.111400000000     0.416666666667     0          
O        O      0.475300000000     0.071000000000     0.482133333333     0          
T        Si     0.480100000000     0.111300000000     0.469200000000     0          
O        O      0.379166666667     0.189600000000     0.644800000000     0          
O        O      0.358400000000     0.136466666667     0.583333333333     0          
O        O      0.404300000000     0.141966666667     0.648800000000     0          
T        Si     0.368800000000     0.146766666667     0.635866666667     0          
O        O      0.522900000000     0.045833333333     0.478133333333     0          
O        O      0.555266666667     0.025066666667     0.416666666667     0          
O        O      0.595666666667     0.070966666667     0.482133333333     0          
T        Si     0.555366666667     0.035466666667     0.469200000000     0          
O        O      0.477066666667     0.189566666667     0.644800000000     0          
O        O      0.530200000000     0.221933333333     0.583333333333     0          
O        O      0.524700000000     0.262333333333     0.648800000000     0          
T        Si     0.519900000000     0.222033333333     0.635866666667     0          
O        O      0.547833333333     0.000000000000     0.333333333333     0          
T        Si     0.519900000000     0.297866666667     0.635866666667     0          
O        O      0.547833333333     0.214500000000     0.500000000000     0          
T        Si     0.555366666667     0.186566666667     0.469200000000     0          
O        O      0.333333333333     0.214500000000     0.333333333333     0          
T        Si     0.368800000000     0.222033333333     0.635866666667     0          
O        O      0.452166666667     0.000000000000     0.500000000000     0          
T        Si     0.480100000000     0.035466666667     0.469200000000     0          
O        O      0.452166666667     0.118833333333     0.333333333333     0          
T        Si     0.444633333333     0.146766666667     0.635866666667     0          
O        O      0.333333333333     0.118833333333     0.500000000000     0          
T        Si     0.631200000000     0.111300000000     0.469200000000     0          
T        Si     0.368800000000     0.146766666667     0.530800000000     0          
T        Si     0.555366666667     0.035466666667     0.364133333333     0          
T        Si     0.519900000000     0.222033333333     0.530800000000     0          
T        Si     0.631200000000     0.186566666667     0.364133333333     0          
T        Si     0.444633333333     0.297866666667     0.530800000000     0          
T        Si     0.480100000000     0.111300000000     0.364133333333     0          
O        O      0.522933333333     0.045833333333     0.688533333333     0          
O        O      0.452166666667     0.000000000000     0.666666666667     0          
O        O      0.469800000000     0.025066666667     0.750000000000     0          
O        O      0.475300000000     0.070966666667     0.684533333333     0          
T        Si     0.480100000000     0.035466666667     0.697466666667     0          
O        O      0.477100000000     0.189600000000     0.855200000000     0          
O        O      0.452166666667     0.118833333333     0.833333333333     0          
O        O      0.444733333333     0.136466666667     0.916666666667     0          
O        O      0.404333333333     0.141966666667     0.851200000000     0          
T        Si     0.444633333333     0.146766666667     0.864133333333     0          
O        O      0.620833333333     0.143766666667     0.688533333333     0          
O        O      0.333333333333     0.118833333333     0.666666666667     0          
O        O      0.641600000000     0.111400000000     0.750000000000     0          
O        O      0.595700000000     0.071000000000     0.684533333333     0          
T        Si     0.631200000000     0.111300000000     0.697466666667     0          
O        O      0.477066666667     0.287500000000     0.855200000000     0          
O        O      0.547833333333     0.000000000000     0.833333333333     0          
O        O      0.530200000000     0.308266666667     0.916666666667     0          
O        O      0.524700000000     0.262366666667     0.851200000000     0          
T        Si     0.519900000000     0.297866666667     0.864133333333     0          
O        O      0.522900000000     0.143733333333     0.688533333333     0          
O        O      0.547833333333     0.214500000000     0.666666666667     0          
O        O      0.555266666667     0.196866666667     0.750000000000     0          
O        O      0.595666666667     0.191366666667     0.684533333333     0          
T        Si     0.555366666667     0.186566666667     0.697466666667     0          
O        O      0.379166666667     0.189566666667     0.855200000000     0          
O        O      0.333333333333     0.214500000000     0.833333333333     0          
O        O      0.358400000000     0.221933333333     0.916666666667     0          
O        O      0.404300000000     0.262333333333     0.851200000000     0          
T        Si     0.368800000000     0.222033333333     0.864133333333     0          
O        O      0.620833333333     0.143733333333     0.811466666667     0          
O        O      0.641600000000     0.196866666667     0.750000000000     0          
O        O      0.595700000000     0.191366666667     0.815466666667     0          
T        Si     0.631200000000     0.186566666667     0.802533333333     0          
O        O      0.477100000000     0.287500000000     0.978133333333     0          
O        O      0.444733333333     0.308266666667     0.916666666667     0          
O        O      0.404333333333     0.262366666667     0.982133333333     0          
T        Si     0.444633333333     0.297866666667     0.969200000000     0          
O        O      0.522933333333     0.143766666667     0.811466666667     0          
O        O      0.469800000000     0.111400000000     0.750000000000     0          
O        O      0.475300000000     0.071000000000     0.815466666667     0          
T        Si     0.480100000000     0.111300000000     0.802533333333     0          
O        O      0.379166666667     0.189600000000     0.978133333333     0          
O        O      0.358400000000     0.136466666667     0.916666666667     0          
O        O      0.404300000000     0.141966666667     0.982133333333     0          
T        Si     0.368800000000     0.146766666667     0.969200000000     0          
O        O      0.522900000000     0.045833333333     0.811466666667     0          
O        O      0.555266666667     0.025066666667     0.750000000000     0          
O        O      0.595666666667     0.070966666667     0.815466666667     0          
T        Si     0.555366666667     0.035466666667     0.802533333333     0          
O        O      0.477066666667     0.189566666667     0.978133333333     0          
O        O      0.530200000000     0.221933333333     0.916666666667     0          
O        O      0.524700000000     0.262333333333     0.982133333333     0          
T        Si     0.519900000000     0.222033333333     0.969200000000     0          
O        O      0.547833333333     0.000000000000     0.666666666667     0          
T        Si     0.519900000000     0.297866666667     0.969200000000     0          
O        O      0.547833333333     0.214500000000     0.833333333333     0          
T        Si     0.555366666667     0.186566666667     0.802533333333     0          
O        O      0.333333333333     0.214500000000     0.666666666667     0          
T        Si     0.368800000000     0.222033333333     0.969200000000     0          
O        O      0.452166666667     0.000000000000     0.833333333333     0          
T        Si     0.480100000000     0.035466666667     0.802533333333     0          
O        O      0.452166666667     0.118833333333     0.666666666667     0          
T        Si     0.444633333333     0.146766666667     0.969200000000     0          
O        O      0.333333333333     0.118833333333     0.833333333333     0          
T        Si     0.631200000000     0.111300000000     0.802533333333     0          
T        Si     0.368800000000     0.146766666667     0.864133333333     0          
T        Si     0.555366666667     0.035466666667     0.697466666667     0          
T        Si     0.519900000000     0.222033333333     0.864133333333     0          
T        Si     0.631200000000     0.186566666667     0.697466666667     0          
T        Si     0.444633333333     0.297866666667     0.864133333333     0          
T        Si     0.480100000000     0.111300000000     0.697466666667     0          
O        O      0.522933333333     0.379166666667     0.021866666667     0          
O        O      0.452166666667     0.333333333333     0.000000000000     0          
O        O      0.469800000000     0.358400000000     0.083333333333     0          
O        O      0.475300000000     0.404300000000     0.017866666667     0          
T        Si     0.480100000000     0.368800000000     0.030800000000     0          
O        O      0.477100000000     0.522933333333     0.188533333333     0          
O        O      0.452166666667     0.452166666667     0.166666666667     0          
O        O      0.444733333333     0.469800000000     0.250000000000     0          
O        O      0.404333333333     0.475300000000     0.184533333333     0          
T        Si     0.444633333333     0.480100000000     0.197466666667     0          
O        O      0.620833333333     0.477100000000     0.021866666667     0          
O        O      0.333333333333     0.452166666667     0.000000000000     0          
O        O      0.641600000000     0.444733333333     0.083333333333     0          
O        O      0.595700000000     0.404333333333     0.017866666667     0          
T        Si     0.631200000000     0.444633333333     0.030800000000     0          
O        O      0.477066666667     0.620833333333     0.188533333333     0          
O        O      0.547833333333     0.333333333333     0.166666666667     0          
O        O      0.530200000000     0.641600000000     0.250000000000     0          
O        O      0.524700000000     0.595700000000     0.184533333333     0          
T        Si     0.519900000000     0.631200000000     0.197466666667     0          
O        O      0.522900000000     0.477066666667     0.021866666667     0          
O        O      0.547833333333     0.547833333333     0.000000000000     0          
O        O      0.555266666667     0.530200000000     0.083333333333     0          
O        O      0.595666666667     0.524700000000     0.017866666667     0          
T        Si     0.555366666667     0.519900000000     0.030800000000     0          
O        O      0.379166666667     0.522900000000     0.188533333333     0          
O        O      0.333333333333     0.547833333333     0.166666666667     0          
O        O      0.358400000000     0.555266666667     0.250000000000     0          
O        O      0.404300000000     0.595666666667     0.184533333333     0          
T        Si     0.368800000000     0.555366666667     0.197466666667     0          
O        O      0.620833333333     0.477066666667     0.144800000000     0          
O        O      0.641600000000     0.530200000000     0.083333333333     0          
O        O      0.595700000000     0.524700000000     0.148800000000     0          
T        Si     0.631200000000     0.519900000000     0.135866666667     0          
O        O      0.477100000000     0.620833333333     0.311466666667     0          
O        O      0.444733333333     0.641600000000     0.250000000000     0          
O        O      0.404333333333     0.595700000000     0.315466666667     0          
T        Si     0.444633333333     0.631200000000     0.302533333333     0          
O        O      0.522933333333     0.477100000000     0.144800000000     0          
O        O      0.469800000000     0.444733333333     0.083333333333     0          
O        O      0.475300000000     0.404333333333     0.148800000000     0          
T        Si     0.480100000000     0.444633333333     0.135866666667     0          
O        O      0.379166666667     0.522933333333     0.311466666667     0          
O        O      0.358400000000     0.469800000000     0.250000000000     0          
O        O      0.404300000000     0.475300000000     0.315466666667     0          
T        Si     0.368800000000     0.480100000000     0.302533333333     0          
O        O      0.522900000000     0.379166666667     0.144800000000     0          
O        O      0.555266666667     0.358400000000     0.083333333333     0          
O        O      0.595666666667     0.404300000000     0.148800000000     0          
T        Si     0.555366666667     0.368800000000     0.135866666667     0          
O        O      0.477066666667     0.522900000000     0.311466666667     0          
O        O      0.530200000000     0.555266666667     0.250000000000     0          
O        O      0.524700000000     0.595666666667     0.315466666667     0          
T        Si     0.519900000000     0.555366666667     0.302533333333     0          
O        O      0.547833333333     0.333333333333     0.000000000000     0          
T        Si     0.519900000000     0.631200000000     0.302533333333     0          
O        O      0.547833333333     0.547833333333     0.166666666667     0          
T        Si     0.555366666667     0.519900000000     0.135866666667     0          
O        O      0.333333333333     0.547833333333     0.000000000000     0          
T        Si     0.368800000000     0.555366666667     0.302533333333     0          
O        O      0.452166666667     0.333333333333     0.166666666667     0          
T        Si     0.480100000000     0.368800000000     0.135866666667     0          
O        O      0.452166666667     0.452166666667     0.000000000000     0          
T        Si     0.444633333333     0.480100000000     0.302533333333     0          
O        O      0.333333333333     0.452166666667     0.166666666667     0          
T        Si     0.631200000000     0.444633333333     0.135866666667     0          
T        Si     0.368800000000     0.480100000000     0.197466666667     0          
T        Si     0.555366666667     0.368800000000     0.030800000000     0          
T        Si     0.519900000000     0.555366666667     0.197466666667     0          
T        Si     0.631200000000     0.519900000000     0.030800000000     0          
T        Si     0.444633333333     0.631200000000     0.197466666667     0          
T        Si     0.480100000000     0.444633333333     0.030800000000     0          
O        O      0.522933333333     0.379166666667     0.355200000000     0          
O        O      0.452166666667     0.333333333333     0.333333333333     0          
O        O      0.469800000000     0.358400000000     0.416666666667     0          
O        O      0.475300000000     0.404300000000     0.351200000000     0          
T        Si     0.480100000000     0.368800000000     0.364133333333     0          
O        O      0.477100000000     0.522933333333     0.521866666667     0          
O        O      0.452166666667     0.452166666667     0.500000000000     0          
O        O      0.444733333333     0.469800000000     0.583333333333     0          
O        O      0.404333333333     0.475300000000     0.517866666667     0          
T        Si     0.444633333333     0.480100000000     0.530800000000     0          
O        O      0.620833333333     0.477100000000     0.355200000000     0          
O        O      0.333333333333     0.452166666667     0.333333333333     0          
O        O      0.641600000000     0.444733333333     0.416666666667     0          
O        O      0.595700000000     0.404333333333     0.351200000000     0          
T        Si     0.631200000000     0.444633333333     0.364133333333     0          
O        O      0.477066666667     0.620833333333     0.521866666667     0          
O        O      0.547833333333     0.333333333333     0.500000000000     0          
O        O      0.530200000000     0.641600000000     0.583333333333     0          
O        O      0.524700000000     0.595700000000     0.517866666667     0          
T        Si     0.519900000000     0.631200000000     0.530800000000     0          
O        O      0.522900000000     0.477066666667     0.355200000000     0          
O        O      0.547833333333     0.547833333333     0.333333333333     0          
O        O      0.555266666667     0.530200000000     0.416666666667     0          
O        O      0.595666666667     0.524700000000     0.351200000000     0          
T        Si     0.555366666667     0.519900000000     0.364133333333     0          
O        O      0.379166666667     0.522900000000     0.521866666667     0          
O        O      0.333333333333     0.547833333333     0.500000000000     0          
O        O      0.358400000000     0.555266666667     0.583333333333     0          
O        O      0.404300000000     0.595666666667     0.517866666667     0          
T        Si     0.368800000000     0.555366666667     0.530800000000     0          
O        O      0.620833333333     0.477066666667     0.478133333333     0          
O        O      0.641600000000     0.530200000000     0.416666666667     0          
O        O      0.595700000000     0.524700000000     0.482133333333     0          
T        Si     0.631200000000     0.519900000000     0.469200000000     0          
O        O      0.477100000000     0.620833333333     0.644800000000     0          
O        O      0.444733333333     0.641600000000     0.583333333333     0          
O        O      0.404333333333     0.595700000000     0.648800000000     0          
T        Si     0.444633333333     0.631200000000     0.635866666667     0          
O        O      0.522933333333     0.477100000000     0.478133333333     0          
O        O      0.469800000000     0.444733333333     0.416666666667     0          
O        O      0.475300000000     0.404333333333     0.482133333333     0          
T        Si     0.480100000000     0.444633333333     0.469200000000     0          
O        O      0.379166666667     0.522933333333     0.644800000000     0          
O        O      0.358400000000     0.469800000000     0.583333333333     0          
O        O      0.404300000000     0.475300000000     0.648800000000     0          
T        Si     0.368800000000     0.480100000000     0.635866666667     0          
O        O      0.522900000000     0.379166666667     0.478133333333     0          
O        O      0.555266666667     0.358400000000     0.416666666667     0          
O        O      0.595666666667     0.404300000000     0.482133333333     0          
T        Si     0.555366666667     0.368800000000     0.469200000000     0          
O        O      0.477066666667     0.522900000000     0.644800000000     0          
O        O      0.530200000000     0.555266666667     0.583333333333     0          
O        O      0.524700000000     0.595666666667     0.648800000000     0          
T        Si     0.519900000000     0.555366666667     0.635866666667     0          
O        O      0.547833333333     0.333333333333     0.333333333333     0          
T        Si     0.519900000000     0.631200000000     0.635866666667     0          
O        O      0.547833333333     0.547833333333     0.500000000000     0          
T        Si     0.555366666667     0.519900000000     0.469200000000     0          
O        O      0.333333333333     0.547833333333     0.333333333333     0          
T        Si     0.368800000000     0.555366666667     0.635866666667     0          
O        O      0.452166666667     0.333333333333     0.500000000000     0          
T        Si     0.480100000000     0.368800000000     0.469200000000     0          
O        O      0.452166666667     0.452166666667     0.333333333333     0          
T        Si     0.444633333333     0.480100000000     0.635866666667     0          
O        O      0.333333333333     0.452166666667     0.500000000000     0          
T        Si     0.631200000000     0.444633333333     0.469200000000     0          
T        Si     0.368800000000     0.480100000000     0.530800000000     0          
T        Si     0.555366666667     0.368800000000     0.364133333333     0          
T        Si     0.519900000000     0.555366666667     0.530800000000     0          
T        Si     0.631200000000     0.519900000000     0.364133333333     0          
T        Si     0.444633333333     0.631200000000     0.530800000000     0          
T        Si     0.480100000000     0.444633333333     0.364133333333     0          
O        O      0.522933333333     0.379166666667     0.688533333333     0          
O        O      0.452166666667     0.333333333333     0.666666666667     0          
O        O      0.469800000000     0.358400000000     0.750000000000     0          
O        O      0.475300000000     0.404300000000     0.684533333333     0          
T        Si     0.480100000000     0.368800000000     0.697466666667     0          
O        O      0.477100000000     0.522933333333     0.855200000000     0          
O        O      0.452166666667     0.452166666667     0.833333333333     0          
O        O      0.444733333333     0.469800000000     0.916666666667     0          
O        O      0.404333333333     0.475300000000     0.851200000000     0          
T        Si     0.444633333333     0.480100000000     0.864133333333     0          
O        O      0.620833333333     0.477100000000     0.688533333333     0          
O        O      0.333333333333     0.452166666667     0.666666666667     0          
O        O      0.641600000000     0.444733333333     0.750000000000     0          
O        O      0.595700000000     0.404333333333     0.684533333333     0          
T        Si     0.631200000000     0.444633333333     0.697466666667     0          
O        O      0.477066666667     0.620833333333     0.855200000000     0          
O        O      0.547833333333     0.333333333333     0.833333333333     0          
O        O      0.530200000000     0.641600000000     0.916666666667     0          
O        O      0.524700000000     0.595700000000     0.851200000000     0          
T        Si     0.519900000000     0.631200000000     0.864133333333     0          
O        O      0.522900000000     0.477066666667     0.688533333333     0          
O        O      0.547833333333     0.547833333333     0.666666666667     0          
O        O      0.555266666667     0.530200000000     0.750000000000     0          
O        O      0.595666666667     0.524700000000     0.684533333333     0          
T        Si     0.555366666667     0.519900000000     0.697466666667     0          
O        O      0.379166666667     0.522900000000     0.855200000000     0          
O        O      0.333333333333     0.547833333333     0.833333333333     0          
O        O      0.358400000000     0.555266666667     0.916666666667     0          
O        O      0.404300000000     0.595666666667     0.851200000000     0          
T        Si     0.368800000000     0.555366666667     0.864133333333     0          
O        O      0.620833333333     0.477066666667     0.811466666667     0          
O        O      0.641600000000     0.530200000000     0.750000000000     0          
O        O      0.595700000000     0.524700000000     0.815466666667     0          
T        Si     0.631200000000     0.519900000000     0.802533333333     0          
O        O      0.477100000000     0.620833333333     0.978133333333     0          
O        O      0.444733333333     0.641600000000     0.916666666667     0          
O        O      0.404333333333     0.595700000000     0.982133333333     0          
T        Si     0.444633333333     0.631200000000     0.969200000000     0          
O        O      0.522933333333     0.477100000000     0.811466666667     0          
O        O      0.469800000000     0.444733333333     0.750000000000     0          
O        O      0.475300000000     0.404333333333     0.815466666667     0          
T        Si     0.480100000000     0.444633333333     0.802533333333     0          
O        O      0.379166666667     0.522933333333     0.978133333333     0          
O        O      0.358400000000     0.469800000000     0.916666666667     0          
O        O      0.404300000000     0.475300000000     0.982133333333     0          
T        Si     0.368800000000     0.480100000000     0.969200000000     0          
O        O      0.522900000000     0.379166666667     0.811466666667     0          
O        O      0.555266666667     0.358400000000     0.750000000000     0          
O        O      0.595666666667     0.404300000000     0.815466666667     0          
T        Si     0.555366666667     0.368800000000     0.802533333333     0          
O        O      0.477066666667     0.522900000000     0.978133333333     0          
O        O      0.530200000000     0.555266666667     0.916666666667     0          
O        O      0.524700000000     0.595666666667     0.982133333333     0          
T        Si     0.519900000000     0.555366666667     0.969200000000     0          
O        O      0.547833333333     0.333333333333     0.666666666667     0          
T        Si     0.519900000000     0.631200000000     0.969200000000     0          
O        O      0.547833333333     0.547833333333     0.833333333333     0          
T        Si     0.555366666667     0.519900000000     0.802533333333     0          
O        O      0.333333333333     0.547833333333     0.666666666667     0          
T        Si     0.368800000000     0.555366666667     0.969200000000     0          
O        O      0.452166666667     0.333333333333     0.833333333333     0          
T        Si     0.480100000000     0.368800000000     0.802533333333     0          
O        O      0.452166666667     0.452166666667     0.666666666667     0          
T        Si     0.444633333333     0.480100000000     0.969200000000     0          
O        O      0.333333333333     0.452166666667     0.833333333333     0          
T        Si     0.631200000000     0.444633333333     0.802533333333     0          
T        Si     0.368800000000     0.480100000000     0.864133333333     0          
T        Si     0.555366666667     0.368800000000     0.697466666667     0          
T        Si     0.519900000000     0.555366666667     0.864133333333     0          
T        Si     0.631200000000     0.519900000000     0.697466666667     0          
T        Si     0.444633333333     0.631200000000     0.864133333333     0          
T        Si     0.480100000000     0.444633333333     0.697466666667     0          
O        O      0.522933333333     0.712500000000     0.021866666667     0          
O        O      0.452166666667     0.666666666667     0.000000000000     0          
O        O      0.469800000000     0.691733333333     0.083333333333     0          
O        O      0.475300000000     0.737633333333     0.017866666667     0          
T        Si     0.480100000000     0.702133333333     0.030800000000     0          
O        O      0.477100000000     0.856266666667     0.188533333333     0          
O        O      0.452166666667     0.785500000000     0.166666666667     0          
O        O      0.444733333333     0.803133333333     0.250000000000     0          
O        O      0.404333333333     0.808633333333     0.184533333333     0          
T        Si     0.444633333333     0.813433333333     0.197466666667     0          
O        O      0.620833333333     0.810433333333     0.021866666667     0          
O        O      0.333333333333     0.785500000000     0.000000000000     0          
O        O      0.641600000000     0.778066666667     0.083333333333     0          
O        O      0.595700000000     0.737666666667     0.017866666667     0          
T        Si     0.631200000000     0.777966666667     0.030800000000     0          
O        O      0.477066666667     0.954166666667     0.188533333333     0          
O        O      0.547833333333     0.666666666667     0.166666666667     0          
O        O      0.530200000000     0.974933333333     0.250000000000     0          
O        O      0.524700000000     0.929033333333     0.184533333333     0          
T        Si     0.519900000000     0.964533333333     0.197466666667     0          
O        O      0.522900000000     0.810400000000     0.021866666667     0          
O        O      0.547833333333     0.881166666667     0.000000000000     0          
O        O      0.555266666667     0.863533333333     0.083333333333     0          
O        O      0.595666666667     0.858033333333     0.017866666667     0          
T        Si     0.555366666667     0.853233333333     0.030800000000     0          
O        O      0.379166666667     0.856233333333     0.188533333333     0          
O        O      0.333333333333     0.881166666667     0.166666666667     0          
O        O      0.358400000000     0.888600000000     0.250000000000     0          
O        O      0.404300000000     0.929000000000     0.184533333333     0          
T        Si     0.368800000000     0.888700000000     0.197466666667     0          
O        O      0.620833333333     0.810400000000     0.144800000000     0          
O        O      0.641600000000     0.863533333333     0.083333333333     0          
O        O      0.595700000000     0.858033333333     0.148800000000     0          
T        Si     0.631200000000     0.853233333333     0.135866666667     0          
O        O      0.477100000000     0.954166666667     0.311466666667     0          
O        O      0.444733333333     0.974933333333     0.250000000000     0          
O        O      0.404333333333     0.929033333333     0.315466666667     0          
T        Si     0.444633333333     0.964533333333     0.302533333333     0          
O        O      0.522933333333     0.810433333333     0.144800000000     0          
O        O      0.469800000000     0.778066666667     0.083333333333     0          
O        O      0.475300000000     0.737666666667     0.148800000000     0          
T        Si     0.480100000000     0.777966666667     0.135866666667     0          
O        O      0.379166666667     0.856266666667     0.311466666667     0          
O        O      0.358400000000     0.803133333333     0.250000000000     0          
O        O      0.404300000000     0.808633333333     0.315466666667     0          
T        Si     0.368800000000     0.813433333333     0.302533333333     0          
O        O      0.522900000000     0.712500000000     0.144800000000     0          
O        O      0.555266666667     0.691733333333     0.083333333333     0          
O        O      0.595666666667     0.737633333333     0.148800000000     0          
T        Si     0.555366666667     0.702133333333     0.135866666667     0          
O        O      0.477066666667     0.856233333333     0.311466666667     0          
O        O      0.530200000000     0.888600000000     0.250000000000     0          
O        O      0.524700000000     0.929000000000     0.315466666667     0          
T        Si     0.519900000000     0.888700000000     0.302533333333     0          
O        O      0.547833333333     0.666666666667     0.000000000000     0          
T        Si     0.519900000000     0.964533333333     0.302533333333     0          
O        O      0.547833333333     0.881166666667     0.166666666667     0          
T        Si     0.555366666667     0.853233333333     0.135866666667     0          
O        O      0.333333333333     0.881166666667     0.000000000000     0          
T        Si     0.368800000000     0.888700000000     0.302533333333     0          
O        O      0.452166666667     0.666666666667     0.166666666667     0          
T        Si     0.480100000000     0.702133333333     0.135866666667     0          
O        O      0.452166666667     0.785500000000     0.000000000000     0          
T        Si     0.444633333333     0.813433333333     0.302533333333     0          
O        O      0.333333333333     0.785500000000     0.166666666667     0          
T        Si     0.631200000000     0.777966666667     0.135866666667     0          
T        Si     0.368800000000     0.813433333333     0.197466666667     0          
T        Si     0.555366666667     0.702133333333     0.030800000000     0          
T        Si     0.519900000000     0.888700000000     0.197466666667     0          
T        Si     0.631200000000     0.853233333333     0.030800000000     0          
T        Si     0.444633333333     0.964533333333     0.197466666667     0          
T        Si     0.480100000000     0.777966666667     0.030800000000     0          
O        O      0.522933333333     0.712500000000     0.355200000000     0          
O        O      0.452166666667     0.666666666667     0.333333333333     0          
O        O      0.469800000000     0.691733333333     0.416666666667     0          
O        O      0.475300000000     0.737633333333     0.351200000000     0          
T        Si     0.480100000000     0.702133333333     0.364133333333     0          
O        O      0.477100000000     0.856266666667     0.521866666667     0          
O        O      0.452166666667     0.785500000000     0.500000000000     0          
O        O      0.444733333333     0.803133333333     0.583333333333     0          
O        O      0.404333333333     0.808633333333     0.517866666667     0          
T        Si     0.444633333333     0.813433333333     0.530800000000     0          
O        O      0.620833333333     0.810433333333     0.355200000000     0          
O        O      0.333333333333     0.785500000000     0.333333333333     0          
O        O      0.641600000000     0.778066666667     0.416666666667     0          
O        O      0.595700000000     0.737666666667     0.351200000000     0          
T        Si     0.631200000000     0.777966666667     0.364133333333     0          
O        O      0.477066666667     0.954166666667     0.521866666667     0          
O        O      0.547833333333     0.666666666667     0.500000000000     0          
O        O      0.530200000000     0.974933333333     0.583333333333     0          
O        O      0.524700000000     0.929033333333     0.517866666667     0          
T        Si     0.519900000000     0.964533333333     0.530800000000     0          
O        O      0.522900000000     0.810400000000     0.355200000000     0          
O        O      0.547833333333     0.881166666667     0.333333333333     0          
O        O      0.555266666667     0.863533333333     0.416666666667     0          
O        O      0.595666666667     0.858033333333     0.351200000000     0          
T        Si     0.555366666667     0.853233333333     0.364133333333     0          
O        O      0.379166666667     0.856233333333     0.521866666667     0          
O        O      0.333333333333     0.881166666667     0.500000000000     0          
O        O      0.358400000000     0.888600000000     0.583333333333     0          
O        O      0.404300000000     0.929000000000     0.517866666667     0          
T        Si     0.368800000000     0.888700000000     0.530800000000     0          
O        O      0.620833333333     0.810400000000     0.478133333333     0          
O        O      0.641600000000     0.863533333333     0.416666666667     0          
O        O      0.595700000000     0.858033333333     0.482133333333     0          
T        Si     0.631200000000     0.853233333333     0.469200000000     0          
O        O      0.477100000000     0.954166666667     0.644800000000     0          
O        O      0.444733333333     0.974933333333     0.583333333333     0          
O        O      0.404333333333     0.929033333333     0.648800000000     0          
T        Si     0.444633333333     0.964533333333     0.635866666667     0          
O        O      0.522933333333     0.810433333333     0.478133333333     0          
O        O      0.469800000000     0.778066666667     0.416666666667     0          
O        O      0.475300000000     0.737666666667     0.482133333333     0          
T        Si     0.480100000000     0.777966666667     0.469200000000     0          
O        O      0.379166666667     0.856266666667     0.644800000000     0          
O        O      0.358400000000     0.803133333333     0.583333333333     0          
O        O      0.404300000000     0.808633333333     0.648800000000     0          
T        Si     0.368800000000     0.813433333333     0.635866666667     0          
O        O      0.522900000000     0.712500000000     0.478133333333     0          
O        O      0.555266666667     0.691733333333     0.416666666667     0          
O        O      0.595666666667     0.737633333333     0.482133333333     0          
T        Si     0.555366666667     0.702133333333     0.469200000000     0          
O        O      0.477066666667     0.856233333333     0.644800000000     0          
O        O      0.530200000000     0.888600000000     0.583333333333     0          
O        O      0.524700000000     0.929000000000     0.648800000000     0          
T        Si     0.519900000000     0.888700000000     0.635866666667     0          
O        O      0.547833333333     0.666666666667     0.333333333333     0          
T        Si     0.519900000000     0.964533333333     0.635866666667     0          
O        O      0.547833333333     0.881166666667     0.500000000000     0          
T        Si     0.555366666667     0.853233333333     0.469200000000     0          
O        O      0.333333333333     0.881166666667     0.333333333333     0          
T        Si     0.368800000000     0.888700000000     0.635866666667     0          
O        O      0.452166666667     0.666666666667     0.500000000000     0          
T        Si     0.480100000000     0.702133333333     0.469200000000     0          
O        O      0.452166666667     0.785500000000     0.333333333333     0          
T        Si     0.444633333333     0.813433333333     0.635866666667     0          
O        O      0.333333333333     0.785500000000     0.500000000000     0          
T        Si     0.631200000000     0.777966666667     0.469200000000     0          
T        Si     0.368800000000     0.813433333333     0.530800000000     0          
T        Si     0.555366666667     0.702133333333     0.364133333333     0          
T        Si     0.519900000000     0.888700000000     0.530800000000     0          
T        Si     0.631200000000     0.853233333333     0.364133333333     0          
T        Si     0.444633333333     0.964533333333     0.530800000000     0          
T        Si     0.480100000000     0.777966666667     0.364133333333     0          
O        O      0.522933333333     0.712500000000     0.688533333333     0          
O        O      0.452166666667     0.666666666667     0.666666666667     0          
O        O      0.469800000000     0.691733333333     0.750000000000     0          
O        O      0.475300000000     0.737633333333     0.684533333333     0          
T        Si     0.480100000000     0.702133333333     0.697466666667     0          
O        O      0.477100000000     0.856266666667     0.855200000000     0          
O        O      0.452166666667     0.785500000000     0.833333333333     0          
O        O      0.444733333333     0.803133333333     0.916666666667     0          
O        O      0.404333333333     0.808633333333     0.851200000000     0          
T        Si     0.444633333333     0.813433333333     0.864133333333     0          
O        O      0.620833333333     0.810433333333     0.688533333333     0          
O        O      0.333333333333     0.785500000000     0.666666666667     0          
O        O      0.641600000000     0.778066666667     0.750000000000     0          
O        O      0.595700000000     0.737666666667     0.684533333333     0          
T        Si     0.631200000000     0.777966666667     0.697466666667     0          
O        O      0.477066666667     0.954166666667     0.855200000000     0          
O        O      0.547833333333     0.666666666667     0.833333333333     0          
O        O      0.530200000000     0.974933333333     0.916666666667     0          
O        O      0.524700000000     0.929033333333     0.851200000000     0          
T        Si     0.519900000000     0.964533333333     0.864133333333     0          
O        O      0.522900000000     0.810400000000     0.688533333333     0          
O        O      0.547833333333     0.881166666667     0.666666666667     0          
O        O      0.555266666667     0.863533333333     0.750000000000     0          
O        O      0.595666666667     0.858033333333     0.684533333333     0          
T        Si     0.555366666667     0.853233333333     0.697466666667     0          
O        O      0.379166666667     0.856233333333     0.855200000000     0          
O        O      0.333333333333     0.881166666667     0.833333333333     0          
O        O      0.358400000000     0.888600000000     0.916666666667     0          
O        O      0.404300000000     0.929000000000     0.851200000000     0          
T        Si     0.368800000000     0.888700000000     0.864133333333     0          
O        O      0.620833333333     0.810400000000     0.811466666667     0          
O        O      0.641600000000     0.863533333333     0.750000000000     0          
O        O      0.595700000000     0.858033333333     0.815466666667     0          
T        Si     0.631200000000     0.853233333333     0.802533333333     0          
O        O      0.477100000000     0.954166666667     0.978133333333     0          
O        O      0.444733333333     0.974933333333     0.916666666667     0          
O        O      0.404333333333     0.929033333333     0.982133333333     0          
T        Si     0.444633333333     0.964533333333     0.969200000000     0          
O        O      0.522933333333     0.810433333333     0.811466666667     0          
O        O      0.469800000000     0.778066666667     0.750000000000     0          
O        O      0.475300000000     0.737666666667     0.815466666667     0          
T        Si     0.480100000000     0.777966666667     0.802533333333     0          
O        O      0.379166666667     0.856266666667     0.978133333333     0          
O        O      0.358400000000     0.803133333333     0.916666666667     0          
O        O      0.404300000000     0.808633333333     0.982133333333     0          
T        Si     0.368800000000     0.813433333333     0.969200000000     0          
O        O      0.522900000000     0.712500000000     0.811466666667     0          
O        O      0.555266666667     0.691733333333     0.750000000000     0          
O        O      0.595666666667     0.737633333333     0.815466666667     0          
T        Si     0.555366666667     0.702133333333     0.802533333333     0          
O        O      0.477066666667     0.856233333333     0.978133333333     0          
O        O      0.530200000000     0.888600000000     0.916666666667     0          
O        O      0.524700000000     0.929000000000     0.982133333333     0          
T        Si     0.519900000000     0.888700000000     0.969200000000     0          
O        O      0.547833333333     0.666666666667     0.666666666667     0          
T        Si     0.519900000000     0.964533333333     0.969200000000     0          
O        O      0.547833333333     0.881166666667     0.833333333333     0          
T        Si     0.555366666667     0.853233333333     0.802533333333     0          
O        O      0.333333333333     0.881166666667     0.666666666667     0          
T        Si     0.368800000000     0.888700000000     0.969200000000     0          
O        O      0.452166666667     0.666666666667     0.833333333333     0          
T        Si     0.480100000000     0.702133333333     0.802533333333     0          
O        O      0.452166666667     0.785500000000     0.666666666667     0          
T        Si     0.444633333333     0.813433333333     0.969200000000     0          
O        O      0.333333333333     0.785500000000     0.833333333333     0          
T        Si     0.631200000000     0.777966666667     0.802533333333     0          
T        Si     0.368800000000     0.813433333333     0.864133333333     0          
T        Si     0.555366666667     0.702133333333     0.697466666667     0          
T        Si     0.519900000000     0.888700000000     0.864133333333     0          
T        Si     0.631200000000     0.853233333333     0.697466666667     0          
T        Si     0.444633333333     0.964533333333     0.864133333333     0          
T        Si     0.480100000000     0.777966666667     0.697466666667     0          
O        O      0.856266666667     0.045833333333     0.021866666667     0          
O        O      0.785500000000     0.000000000000     0.000000000000     0          
O        O      0.803133333333     0.025066666667     0.083333333333     0          
O        O      0.808633333333     0.070966666667     0.017866666667     0          
T        Si     0.813433333333     0.035466666667     0.030800000000     0          
O        O      0.810433333333     0.189600000000     0.188533333333     0          
O        O      0.785500000000     0.118833333333     0.166666666667     0          
O        O      0.778066666667     0.136466666667     0.250000000000     0          
O        O      0.737666666667     0.141966666667     0.184533333333     0          
T        Si     0.777966666667     0.146766666667     0.197466666667     0          
O        O      0.954166666667     0.143766666667     0.021866666667     0          
O        O      0.666666666667     0.118833333333     0.000000000000     0          
O        O      0.974933333333     0.111400000000     0.083333333333     0          
O        O      0.929033333333     0.071000000000     0.017866666667     0          
T        Si     0.964533333333     0.111300000000     0.030800000000     0          
O        O      0.810400000000     0.287500000000     0.188533333333     0          
O        O      0.881166666667     0.000000000000     0.166666666667     0          
O        O      0.863533333333     0.308266666667     0.250000000000     0          
O        O      0.858033333333     0.262366666667     0.184533333333     0          
T        Si     0.853233333333     0.297866666667     0.197466666667     0          
O        O      0.856233333333     0.143733333333     0.021866666667     0          
O        O      0.881166666667     0.214500000000     0.000000000000     0          
O        O      0.888600000000     0.196866666667     0.083333333333     0          
O        O      0.929000000000     0.191366666667     0.017866666667     0          
T        Si     0.888700000000     0.186566666667     0.030800000000     0          
O        O      0.712500000000     0.189566666667     0.188533333333     0          
O        O      0.666666666667     0.214500000000     0.166666666667     0          
O        O      0.691733333333     0.221933333333     0.250000000000     0          
O        O      0.737633333333     0.262333333333     0.184533333333     0          
T        Si     0.702133333333     0.222033333333     0.197466666667     0          
O        O      0.954166666667     0.143733333333     0.144800000000     0          
O        O      0.974933333333     0.196866666667     0.083333333333     0          
O        O      0.929033333333     0.191366666667     0.148800000000     0          
T        Si     0.964533333333     0.186566666667     0.135866666667     0          
O        O      0.810433333333     0.287500000000     0.311466666667     0          
O        O      0.778066666667     0.308266666667     0.250000000000     0          
O        O      0.737666666667     0.262366666667     0.315466666667     0          
T        Si     0.777966666667     0.297866666667     0.302533333333     0          
O        O      0.856266666667     0.143766666667     0.144800000000     0          
O        O      0.803133333333     0.111400000000     0.083333333333     0          
O        O      0.808633333333     0.071000000000     0.148800000000     0          
T        Si     0.813433333333     0.111300000000     0.135866666667     0          
O        O      0.712500000000     0.189600000000     0.311466666667     0          
O        O      0.691733333333     0.136466666667     0.250000000000     0          
O        O      0.737633333333     0.141966666667     0.315466666667     0          
T        Si     0.702133333333     0.146766666667     0.302533333333     0          
O        O      0.856233333333     0.045833333333     0.144800000000     0          
O        O      0.888600000000     0.025066666667     0.083333333333     0          
O        O      0.929000000000     0.070966666667     0.148800000000     0          
T        Si     0.888700000000     0.035466666667     0.135866666667     0          
O        O      0.810400000000     0.189566666667     0.311466666667     0          
O        O      0.863533333333     0.221933333333     0.250000000000     0          
O        O      0.858033333333     0.262333333333     0.315466666667     0          
T        Si     0.853233333333     0.222033333333     0.302533333333     0          
O        O      0.881166666667     0.000000000000     0.000000000000     0          
T        Si     0.853233333333     0.297866666667     0.302533333333     0          
O        O      0.881166666667     0.214500000000     0.166666666667     0          
T        Si     0.888700000000     0.186566666667     0.135866666667     0          
O        O      0.666666666667     0.214500000000     0.000000000000     0          
T        Si     0.702133333333     0.222033333333     0.302533333333     0          
O        O      0.785500000000     0.000000000000     0.166666666667     0          
T        Si     0.813433333333     0.035466666667     0.135866666667     0          
O        O      0.785500000000     0.118833333333     0.000000000000     0          
T        Si     0.777966666667     0.146766666667     0.302533333333     0          
O        O      0.666666666667     0.118833333333     0.166666666667     0          
T        Si     0.964533333333     0.111300000000     0.135866666667     0          
T        Si     0.702133333333     0.146766666667     0.197466666667     0          
T        Si     0.888700000000     0.035466666667     0.030800000000     0          
T        Si     0.853233333333     0.222033333333     0.197466666667     0          
T        Si     0.964533333333     0.186566666667     0.030800000000     0          
T        Si     0.777966666667     0.297866666667     0.197466666667     0          
T        Si     0.813433333333     0.111300000000     0.030800000000     0          
O        O      0.856266666667     0.045833333333     0.355200000000     0          
O        O      0.785500000000     0.000000000000     0.333333333333     0          
O        O      0.803133333333     0.025066666667     0.416666666667     0          
O        O      0.808633333333     0.070966666667     0.351200000000     0          
T        Si     0.813433333333     0.035466666667     0.364133333333     0          
O        O      0.810433333333     0.189600000000     0.521866666667     0          
O        O      0.785500000000     0.118833333333     0.500000000000     0          
O        O      0.778066666667     0.136466666667     0.583333333333     0          
O        O      0.737666666667     0.141966666667     0.517866666667     0          
T        Si     0.777966666667     0.146766666667     0.530800000000     0          
O        O      0.954166666667     0.143766666667     0.355200000000     0          
O        O      0.666666666667     0.118833333333     0.333333333333     0          
O        O      0.974933333333     0.111400000000     0.416666666667     0          
O        O      0.929033333333     0.071000000000     0.351200000000     0          
T        Si     0.964533333333     0.111300000000     0.364133333333     0          
O        O      0.810400000000     0.287500000000     0.521866666667     0          
O        O      0.881166666667     0.000000000000     0.500000000000     0          
O        O      0.863533333333     0.308266666667     0.583333333333     0          
O        O      0.858033333333     0.262366666667     0.517866666667     0          
T        Si     0.853233333333     0.297866666667     0.530800000000     0          
O        O      0.856233333333     0.143733333333     0.355200000000     0          
O        O      0.881166666667     0.214500000000     0.333333333333     0          
O        O      0.888600000000     0.196866666667     0.416666666667     0          
O        O      0.929000000000     0.191366666667     0.351200000000     0          
T        Si     0.888700000000     0.186566666667     0.364133333333     0          
O        O      0.712500000000     0.189566666667     0.521866666667     0          
O        O      0.666666666667     0.214500000000     0.500000000000     0          
O        O      0.691733333333     0.221933333333     0.583333333333     0          
O        O      0.737633333333     0.262333333333     0.517866666667     0          
T        Si     0.702133333333     0.222033333333     0.530800000000     0          
O        O      0.954166666667     0.143733333333     0.478133333333     0          
O        O      0.974933333333     0.196866666667     0.416666666667     0          
O        O      0.929033333333     0.191366666667     0.482133333333     0          
T        Si     0.964533333333     0.186566666667     0.469200000000     0          
O        O      0.810433333333     0.287500000000     0.644800000000     0          
O        O      0.778066666667     0.308266666667     0.583333333333     0          
O        O      0.737666666667     0.262366666667     0.648800000000     0          
T        Si     0.777966666667     0.297866666667     0.635866666667     0          
O        O      0.856266666667     0.143766666667     0.478133333333     0          
O        O      0.803133333333     0.111400000000     0.416666666667     0          
O        O      0.808633333333     0.071000000000     0.482133333333     0          
T        Si     0.813433333333     0.111300000000     0.469200000000     0          
O        O      0.712500000000     0.189600000000     0.644800000000     0          
O        O      0.691733333333     0.136466666667     0.583333333333     0          
O        O      0.737633333333     0.141966666667     0.648800000000     0          
T        Si     0.702133333333     0.146766666667     0.635866666667     0          
O        O      0.856233333333     0.045833333333     0.478133333333     0          
O        O      0.888600000000     0.025066666667     0.416666666667     0          
O        O      0.929000000000     0.070966666667     0.482133333333     0          
T        Si     0.888700000000     0.035466666667     0.469200000000     0          
O        O      0.810400000000     0.189566666667     0.644800000000     0          
O        O      0.863533333333     0.221933333333     0.583333333333     0          
O        O      0.858033333333     0.262333333333     0.648800000000     0          
T        Si     0.853233333333     0.222033333333     0.635866666667     0          
O        O      0.881166666667     0.000000000000     0.333333333333     0          
T        Si     0.853233333333     0.297866666667     0.635866666667     0          
O        O      0.881166666667     0.214500000000     0.500000000000     0          
T        Si     0.888700000000     0.186566666667     0.469200000000     0          
O        O      0.666666666667     0.214500000000     0.333333333333     0          
T        Si     0.702133333333     0.222033333333     0.635866666667     0          
O        O      0.785500000000     0.000000000000     0.500000000000     0          
T        Si     0.813433333333     0.035466666667     0.469200000000     0          
O        O      0.785500000000     0.118833333333     0.333333333333     0          
T        Si     0.777966666667     0.146766666667     0.635866666667     0          
O        O      0.666666666667     0.118833333333     0.500000000000     0          
T        Si     0.964533333333     0.111300000000     0.469200000000     0          
T        Si     0.702133333333     0.146766666667     0.530800000000     0          
T        Si     0.888700000000     0.035466666667     0.364133333333     0          
T        Si     0.853233333333     0.222033333333     0.530800000000     0          
T        Si     0.964533333333     0.186566666667     0.364133333333     0          
T        Si     0.777966666667     0.297866666667     0.530800000000     0          
T        Si     0.813433333333     0.111300000000     0.364133333333     0          
O        O      0.856266666667     0.045833333333     0.688533333333     0          
O        O      0.785500000000     0.000000000000     0.666666666667     0          
O        O      0.803133333333     0.025066666667     0.750000000000     0          
O        O      0.808633333333     0.070966666667     0.684533333333     0          
T        Si     0.813433333333     0.035466666667     0.697466666667     0          
O        O      0.810433333333     0.189600000000     0.855200000000     0          
O        O      0.785500000000     0.118833333333     0.833333333333     0          
O        O      0.778066666667     0.136466666667     0.916666666667     0          
O        O      0.737666666667     0.141966666667     0.851200000000     0          
T        Si     0.777966666667     0.146766666667     0.864133333333     0          
O        O      0.954166666667     0.143766666667     0.688533333333     0          
O        O      0.666666666667     0.118833333333     0.666666666667     0          
O        O      0.974933333333     0.111400000000     0.750000000000     0          
O        O      0.929033333333     0.071000000000     0.684533333333     0          
T        Si     0.964533333333     0.111300000000     0.697466666667     0          
O        O      0.810400000000     0.287500000000     0.855200000000     0          
O        O      0.881166666667     0.000000000000     0.833333333333     0          
O        O      0.863533333333     0.308266666667     0.916666666667     0          
O        O      0.858033333333     0.262366666667     0.851200000000     0          
T        Si     0.853233333333     0.297866666667     0.864133333333     0          
O        O      0.856233333333     0.143733333333     0.688533333333     0          
O        O      0.881166666667     0.214500000000     0.666666666667     0          
O        O      0.888600000000     0.196866666667     0.750000000000     0          
O        O      0.929000000000     0.191366666667     0.684533333333     0          
T        Si     0.888700000000     0.186566666667     0.697466666667     0          
O        O      0.712500000000     0.189566666667     0.855200000000     0          
O        O      0.666666666667     0.214500000000     0.833333333333     0          
O        O      0.691733333333     0.221933333333     0.916666666667     0          
O        O      0.737633333333     0.262333333333     0.851200000000     0          
T        Si     0.702133333333     0.222033333333     0.864133333333     0          
O        O      0.954166666667     0.143733333333     0.811466666667     0          
O        O      0.974933333333     0.196866666667     0.750000000000     0          
O        O      0.929033333333     0.191366666667     0.815466666667     0          
T        Si     0.964533333333     0.186566666667     0.802533333333     0          
O        O      0.810433333333     0.287500000000     0.978133333333     0          
O        O      0.778066666667     0.308266666667     0.916666666667     0          
O        O      0.737666666667     0.262366666667     0.982133333333     0          
T        Si     0.777966666667     0.297866666667     0.969200000000     0          
O        O      0.856266666667     0.143766666667     0.811466666667     0          
O        O      0.803133333333     0.111400000000     0.750000000000     0          
O        O      0.808633333333     0.071000000000     0.815466666667     0          
T        Si     0.813433333333     0.111300000000     0.802533333333     0          
O        O      0.712500000000     0.189600000000     0.978133333333     0          
O        O      0.691733333333     0.136466666667     0.916666666667     0          
O        O      0.737633333333     0.141966666667     0.982133333333     0          
T        Si     0.702133333333     0.146766666667     0.969200000000     0          
O        O      0.856233333333     0.045833333333     0.811466666667     0          
O        O      0.888600000000     0.025066666667     0.750000000000     0          
O        O      0.929000000000     0.070966666667     0.815466666667     0          
T        Si     0.888700000000     0.035466666667     0.802533333333     0          
O        O      0.810400000000     0.189566666667     0.978133333333     0          
O        O      0.863533333333     0.221933333333     0.916666666667     0          
O        O      0.858033333333     0.262333333333     0.982133333333     0          
T        Si     0.853233333333     0.222033333333     0.969200000000     0          
O        O      0.881166666667     0.000000000000     0.666666666667     0          
T        Si     0.853233333333     0.297866666667     0.969200000000     0          
O        O      0.881166666667     0.214500000000     0.833333333333     0          
T        Si     0.888700000000     0.186566666667     0.802533333333     0          
O        O      0.666666666667     0.214500000000     0.666666666667     0          
T        Si     0.702133333333     0.222033333333     0.969200000000     0          
O        O      0.785500000000     0.000000000000     0.833333333333     0          
T        Si     0.813433333333     0.035466666667     0.802533333333     0          
O        O      0.785500000000     0.118833333333     0.666666666667     0          
T        Si     0.777966666667     0.146766666667     0.969200000000     0          
O        O      0.666666666667     0.118833333333     0.833333333333     0          
T        Si     0.964533333333     0.111300000000     0.802533333333     0          
T        Si     0.702133333333     0.146766666667     0.864133333333     0          
T        Si     0.888700000000     0.035466666667     0.697466666667     0          
T        Si     0.853233333333     0.222033333333     0.864133333333     0          
T        Si     0.964533333333     0.186566666667     0.697466666667     0          
T        Si     0.777966666667     0.297866666667     0.864133333333     0          
T        Si     0.813433333333     0.111300000000     0.697466666667     0          
O        O      0.856266666667     0.379166666667     0.021866666667     0          
O        O      0.785500000000     0.333333333333     0.000000000000     0          
O        O      0.803133333333     0.358400000000     0.083333333333     0          
O        O      0.808633333333     0.404300000000     0.017866666667     0          
T        Si     0.813433333333     0.368800000000     0.030800000000     0          
O        O      0.810433333333     0.522933333333     0.188533333333     0          
O        O      0.785500000000     0.452166666667     0.166666666667     0          
O        O      0.778066666667     0.469800000000     0.250000000000     0          
O        O      0.737666666667     0.475300000000     0.184533333333     0          
T        Si     0.777966666667     0.480100000000     0.197466666667     0          
O        O      0.954166666667     0.477100000000     0.021866666667     0          
O        O      0.666666666667     0.452166666667     0.000000000000     0          
O        O      0.974933333333     0.444733333333     0.083333333333     0          
O        O      0.929033333333     0.404333333333     0.017866666667     0          
T        Si     0.964533333333     0.444633333333     0.030800000000     0          
O        O      0.810400000000     0.620833333333     0.188533333333     0          
O        O      0.881166666667     0.333333333333     0.166666666667     0          
O        O      0.863533333333     0.641600000000     0.250000000000     0          
O        O      0.858033333333     0.595700000000     0.184533333333     0          
T        Si     0.853233333333     0.631200000000     0.197466666667     0          
O        O      0.856233333333     0.477066666667     0.021866666667     0          
O        O      0.881166666667     0.547833333333     0.000000000000     0          
O        O      0.888600000000     0.530200000000     0.083333333333     0          
O        O      0.929000000000     0.524700000000     0.017866666667     0          
T        Si     0.888700000000     0.519900000000     0.030800000000     0          
O        O      0.712500000000     0.522900000000     0.188533333333     0          
O        O      0.666666666667     0.547833333333     0.166666666667     0          
O        O      0.691733333333     0.555266666667     0.250000000000     0          
O        O      0.737633333333     0.595666666667     0.184533333333     0          
T        Si     0.702133333333     0.555366666667     0.197466666667     0          
O        O      0.954166666667     0.477066666667     0.144800000000     0          
O        O      0.974933333333     0.530200000000     0.083333333333     0          
O        O      0.929033333333     0.524700000000     0.148800000000     0          
T        Si     0.964533333333     0.519900000000     0.135866666667     0          
O        O      0.810433333333     0.620833333333     0.311466666667     0          
O        O      0.778066666667     0.641600000000     0.250000000000     0          
O        O      0.737666666667     0.595700000000     0.315466666667     0          
T        Si     0.777966666667     0.631200000000     0.302533333333     0          
O        O      0.856266666667     0.477100000000     0.144800000000     0          
O        O      0.803133333333     0.444733333333     0.083333333333     0          
O        O      0.808633333333     0.404333333333     0.148800000000     0          
T        Si     0.813433333333     0.444633333333     0.135866666667     0          
O        O      0.712500000000     0.522933333333     0.311466666667     0          
O        O      0.691733333333     0.469800000000     0.250000000000     0          
O        O      0.737633333333     0.475300000000     0.315466666667     0          
T        Si     0.702133333333     0.480100000000     0.302533333333     0          
O        O      0.856233333333     0.379166666667     0.144800000000     0          
O        O      0.888600000000     0.358400000000     0.083333333333     0          
O        O      0.929000000000     0.404300000000     0.148800000000     0          
T        Si     0.888700000000     0.368800000000     0.135866666667     0          
O        O      0.810400000000     0.522900000000     0.311466666667     0          
O        O      0.863533333333     0.555266666667     0.250000000000     0          
O        O      0.858033333333     0.595666666667     0.315466666667     0          
T        Si     0.853233333333     0.555366666667     0.302533333333     0          
O        O      0.881166666667     0.333333333333     0.000000000000     0          
T        Si     0.853233333333     0.631200000000     0.302533333333     0          
O        O      0.881166666667     0.547833333333     0.166666666667     0          
T        Si     0.888700000000     0.519900000000     0.135866666667     0          
O        O      0.666666666667     0.547833333333     0.000000000000     0          
T        Si     0.702133333333     0.555366666667     0.302533333333     0          
O        O      0.785500000000     0.333333333333     0.166666666667     0          
T        Si     0.813433333333     0.368800000000     0.135866666667     0          
O        O      0.785500000000     0.452166666667     0.000000000000     0          
T        Si     0.777966666667     0.480100000000     0.302533333333     0          
O        O      0.666666666667     0.452166666667     0.166666666667     0          
T        Si     0.964533333333     0.444633333333     0.135866666667     0          
T        Si     0.702133333333     0.480100000000     0.197466666667     0          
T        Si     0.888700000000     0.368800000000     0.030800000000     0          
T        Si     0.853233333333     0.555366666667     0.197466666667     0          
T        Si     0.964533333333     0.519900000000     0.030800000000     0          
T        Si     0.777966666667     0.631200000000     0.197466666667     0          
T        Si     0.813433333333     0.444633333333     0.030800000000     0          
O        O      0.856266666667     0.379166666667     0.355200000000     0          
O        O      0.785500000000     0.333333333333     0.333333333333     0          
O        O      0.803133333333     0.358400000000     0.416666666667     0          
O        O      0.808633333333     0.404300000000     0.351200000000     0          
T        Si     0.813433333333     0.368800000000     0.364133333333     0          
O        O      0.810433333333     0.522933333333     0.521866666667     0          
O        O      0.785500000000     0.452166666667     0.500000000000     0          
O        O      0.778066666667     0.469800000000     0.583333333333     0          
O        O      0.737666666667     0.475300000000     0.517866666667     0          
T        Si     0.777966666667     0.480100000000     0.530800000000     0          
O        O      0.954166666667     0.477100000000     0.355200000000     0          
O        O      0.666666666667     0.452166666667     0.333333333333     0          
O        O      0.974933333333     0.444733333333     0.416666666667     0          
O        O      0.929033333333     0.404333333333     0.351200000000     0          
T        Si     0.964533333333     0.444633333333     0.364133333333     0          
O        O      0.810400000000     0.620833333333     0.521866666667     0          
O        O      0.881166666667     0.333333333333     0.500000000000     0          
O        O      0.863533333333     0.641600000000     0.583333333333     0          
O        O      0.858033333333     0.595700000000     0.517866666667     0          
T        Si     0.853233333333     0.631200000000     0.530800000000     0          
O        O      0.856233333333     0.477066666667     0.355200000000     0          
O        O      0.881166666667     0.547833333333     0.333333333333     0          
O        O      0.888600000000     0.530200000000     0.416666666667     0          
O        O      0.929000000000     0.524700000000     0.351200000000     0          
T        Si     0.888700000000     0.519900000000     0.364133333333     0          
O        O      0.712500000000     0.522900000000     0.521866666667     0          
O        O      0.666666666667     0.547833333333     0.500000000000     0          
O        O      0.691733333333     0.555266666667     0.583333333333     0          
O        O      0.737633333333     0.595666666667     0.517866666667     0          
T        Si     0.702133333333     0.555366666667     0.530800000000     0          
O        O      0.954166666667     0.477066666667     0.478133333333     0          
O        O      0.974933333333     0.530200000000     0.416666666667     0          
O        O      0.929033333333     0.524700000000     0.482133333333     0          
T        Si     0.964533333333     0.519900000000     0.469200000000     0          
O        O      0.810433333333     0.620833333333     0.644800000000     0          
O        O      0.778066666667     0.641600000000     0.583333333333     0          
O        O      0.737666666667     0.595700000000     0.648800000000     0          
T        Si     0.777966666667     0.631200000000     0.635866666667     0          
O        O      0.856266666667     0.477100000000     0.478133333333     0          
O        O      0.803133333333     0.444733333333     0.416666666667     0          
O        O      0.808633333333     0.404333333333     0.482133333333     0          
T        Si     0.813433333333     0.444633333333     0.469200000000     0          
O        O      0.712500000000     0.522933333333     0.644800000000     0          
O        O      0.691733333333     0.469800000000     0.583333333333     0          
O        O      0.737633333333     0.475300000000     0.648800000000     0          
T        Si     0.702133333333     0.480100000000     0.635866666667     0          
O        O      0.856233333333     0.379166666667     0.478133333333     0          
O        O      0.888600000000     0.358400000000     0.416666666667     0          
O        O      0.929000000000     0.404300000000     0.482133333333     0          
T        Si     0.888700000000     0.368800000000     0.469200000000     0          
O        O      0.810400000000     0.522900000000     0.644800000000     0          
O        O      0.863533333333     0.555266666667     0.583333333333     0          
O        O      0.858033333333     0.595666666667     0.648800000000     0          
T        Si     0.853233333333     0.555366666667     0.635866666667     0          
O        O      0.881166666667     0.333333333333     0.333333333333     0          
T        Si     0.853233333333     0.631200000000     0.635866666667     0          
O        O      0.881166666667     0.547833333333     0.500000000000     0          
T        Si     0.888700000000     0.519900000000     0.469200000000     0          
O        O      0.666666666667     0.547833333333     0.333333333333     0          
T        Si     0.702133333333     0.555366666667     0.635866666667     0          
O        O      0.785500000000     0.333333333333     0.500000000000     0          
T        Si     0.813433333333     0.368800000000     0.469200000000     0          
O        O      0.785500000000     0.452166666667     0.333333333333     0          
T        Si     0.777966666667     0.480100000000     0.635866666667     0          
O        O      0.666666666667     0.452166666667     0.500000000000     0          
T        Si     0.964533333333     0.444633333333     0.469200000000     0          
T        Si     0.702133333333     0.480100000000     0.530800000000     0          
T        Si     0.888700000000     0.368800000000     0.364133333333     0          
T        Si     0.853233333333     0.555366666667     0.530800000000     0          
T        Si     0.964533333333     0.519900000000     0.364133333333     0          
T        Si     0.777966666667     0.631200000000     0.530800000000     0          
T        Si     0.813433333333     0.444633333333     0.364133333333     0          
O        O      0.856266666667     0.379166666667     0.688533333333     0          
O        O      0.785500000000     0.333333333333     0.666666666667     0          
O        O      0.803133333333     0.358400000000     0.750000000000     0          
O        O      0.808633333333     0.404300000000     0.684533333333     0          
T        Si     0.813433333333     0.368800000000     0.697466666667     0          
O        O      0.810433333333     0.522933333333     0.855200000000     0          
O        O      0.785500000000     0.452166666667     0.833333333333     0          
O        O      0.778066666667     0.469800000000     0.916666666667     0          
O        O      0.737666666667     0.475300000000     0.851200000000     0          
T        Si     0.777966666667     0.480100000000     0.864133333333     0          
O        O      0.954166666667     0.477100000000     0.688533333333     0          
O        O      0.666666666667     0.452166666667     0.666666666667     0          
O        O      0.974933333333     0.444733333333     0.750000000000     0          
O        O      0.929033333333     0.404333333333     0.684533333333     0          
T        Si     0.964533333333     0.444633333333     0.697466666667     0          
O        O      0.810400000000     0.620833333333     0.855200000000     0          
O        O      0.881166666667     0.333333333333     0.833333333333     0          
O        O      0.863533333333     0.641600000000     0.916666666667     0          
O        O      0.858033333333     0.595700000000     0.851200000000     0          
T        Si     0.853233333333     0.631200000000     0.864133333333     0          
O        O      0.856233333333     0.477066666667     0.688533333333     0          
O        O      0.881166666667     0.547833333333     0.666666666667     0          
O        O      0.888600000000     0.530200000000     0.750000000000     0          
O        O      0.929000000000     0.524700000000     0.684533333333     0          
T        Si     0.888700000000     0.519900000000     0.697466666667     0          
O        O      0.712500000000     0.522900000000     0.855200000000     0          
O        O      0.666666666667     0.547833333333     0.833333333333     0          
O        O      0.691733333333     0.555266666667     0.916666666667     0          
O        O      0.737633333333     0.595666666667     0.851200000000     0          
T        Si     0.702133333333     0.555366666667     0.864133333333     0          
O        O      0.954166666667     0.477066666667     0.811466666667     0          
O        O      0.974933333333     0.530200000000     0.750000000000     0          
O        O      0.929033333333     0.524700000000     0.815466666667     0          
T        Si     0.964533333333     0.519900000000     0.802533333333     0          
O        O      0.810433333333     0.620833333333     0.978133333333     0          
O        O      0.778066666667     0.641600000000     0.916666666667     0          
O        O      0.737666666667     0.595700000000     0.982133333333     0          
T        Si     0.777966666667     0.631200000000     0.969200000000     0          
O        O      0.856266666667     0.477100000000     0.811466666667     0          
O        O      0.803133333333     0.444733333333     0.750000000000     0          
O        O      0.808633333333     0.404333333333     0.815466666667     0          
T        Si     0.813433333333     0.444633333333     0.802533333333     0          
O        O      0.712500000000     0.522933333333     0.978133333333     0          
O        O      0.691733333333     0.469800000000     0.916666666667     0          
O        O      0.737633333333     0.475300000000     0.982133333333     0          
T        Si     0.702133333333     0.480100000000     0.969200000000     0          
O        O      0.856233333333     0.379166666667     0.811466666667     0          
O        O      0.888600000000     0.358400000000     0.750000000000     0          
O        O      0.929000000000     0.404300000000     0.815466666667     0          
T        Si     0.888700000000     0.368800000000     0.802533333333     0          
O        O      0.810400000000     0.522900000000     0.978133333333     0          
O        O      0.863533333333     0.555266666667     0.916666666667     0          
O        O      0.858033333333     0.595666666667     0.982133333333     0          
T        Si     0.853233333333     0.555366666667     0.969200000000     0          
O        O      0.881166666667     0.333333333333     0.666666666667     0          
T        Si     0.853233333333     0.631200000000     0.969200000000     0          
O        O      0.881166666667     0.547833333333     0.833333333333     0          
T        Si     0.888700000000     0.519900000000     0.802533333333     0          
O        O      0.666666666667     0.547833333333     0.666666666667     0          
T        Si     0.702133333333     0.555366666667     0.969200000000     0          
O        O      0.785500000000     0.333333333333     0.833333333333     0          
T        Si     0.813433333333     0.368800000000     0.802533333333     0          
O        O      0.785500000000     0.452166666667     0.666666666667     0          
T        Si     0.777966666667     0.480100000000     0.969200000000     0          
O        O      0.666666666667     0.452166666667     0.833333333333     0          
T        Si     0.964533333333     0.444633333333     0.802533333333     0          
T        Si     0.702133333333     0.480100000000     0.864133333333     0          
T        Si     0.888700000000     0.368800000000     0.697466666667     0          
T        Si     0.853233333333     0.555366666667     0.864133333333     0          
T        Si     0.964533333333     0.519900000000     0.697466666667     0          
T        Si     0.777966666667     0.631200000000     0.864133333333     0          
T        Si     0.813433333333     0.444633333333     0.697466666667     0          
O        O      0.856266666667     0.712500000000     0.021866666667     0          
O        O      0.785500000000     0.666666666667     0.000000000000     0          
O        O      0.803133333333     0.691733333333     0.083333333333     0          
O        O      0.808633333333     0.737633333333     0.017866666667     0          
T        Si     0.813433333333     0.702133333333     0.030800000000     0          
O        O      0.810433333333     0.856266666667     0.188533333333     0          
O        O      0.785500000000     0.785500000000     0.166666666667     0          
O        O      0.778066666667     0.803133333333     0.250000000000     0          
O        O      0.737666666667     0.808633333333     0.184533333333     0          
T        Si     0.777966666667     0.813433333333     0.197466666667     0          
O        O      0.954166666667     0.810433333333     0.021866666667     0          
O        O      0.666666666667     0.785500000000     0.000000000000     0          
O        O      0.974933333333     0.778066666667     0.083333333333     0          
O        O      0.929033333333     0.737666666667     0.017866666667     0          
T        Si     0.964533333333     0.777966666667     0.030800000000     0          
O        O      0.810400000000     0.954166666667     0.188533333333     0          
O        O      0.881166666667     0.666666666667     0.166666666667     0          
O        O      0.863533333333     0.974933333333     0.250000000000     0          
O        O      0.858033333333     0.929033333333     0.184533333333     0          
T        Si     0.853233333333     0.964533333333     0.197466666667     0          
O        O      0.856233333333     0.810400000000     0.021866666667     0          
O        O      0.881166666667     0.881166666667     0.000000000000     0          
O        O      0.888600000000     0.863533333333     0.083333333333     0          
O        O      0.929000000000     0.858033333333     0.017866666667     0          
T        Si     0.888700000000     0.853233333333     0.030800000000     0          
O        O      0.712500000000     0.856233333333     0.188533333333     0          
O        O      0.666666666667     0.881166666667     0.166666666667     0          
O        O      0.691733333333     0.888600000000     0.250000000000     0          
O        O      0.737633333333     0.929000000000     0.184533333333     0          
T        Si     0.702133333333     0.888700000000     0.197466666667     0          
O        O      0.954166666667     0.810400000000     0.144800000000     0          
O        O      0.974933333333     0.863533333333     0.083333333333     0          
O        O      0.929033333333     0.858033333333     0.148800000000     0          
T        Si     0.964533333333     0.853233333333     0.135866666667     0          
O        O      0.810433333333     0.954166666667     0.311466666667     0          
O        O      0.778066666667     0.974933333333     0.250000000000     0          
O        O      0.737666666667     0.929033333333     0.315466666667     0          
T        Si     0.777966666667     0.964533333333     0.302533333333     0          
O        O      0.856266666667     0.810433333333     0.144800000000     0          
O        O      0.803133333333     0.778066666667     0.083333333333     0          
O        O      0.808633333333     0.737666666667     0.148800000000     0          
T        Si     0.813433333333     0.777966666667     0.135866666667     0          
O        O      0.712500000000     0.856266666667     0.311466666667     0          
O        O      0.691733333333     0.803133333333     0.250000000000     0          
O        O      0.737633333333     0.808633333333     0.315466666667     0          
T        Si     0.702133333333     0.813433333333     0.302533333333     0          
O        O      0.856233333333     0.712500000000     0.144800000000     0          
O        O      0.888600000000     0.691733333333     0.083333333333     0          
O        O      0.929000000000     0.737633333333     0.148800000000     0          
T        Si     0.888700000000     0.702133333333     0.135866666667     0          
O        O      0.810400000000     0.856233333333     0.311466666667     0          
O        O      0.863533333333     0.888600000000     0.250000000000     0          
O        O      0.858033333333     0.929000000000     0.315466666667     0          
T        Si     0.853233333333     0.888700000000     0.302533333333     0          
O        O      0.881166666667     0.666666666667     0.000000000000     0          
T        Si     0.853233333333     0.964533333333     0.302533333333     0          
O        O      0.881166666667     0.881166666667     0.166666666667     0          
T        Si     0.888700000000     0.853233333333     0.135866666667     0          
O        O      0.666666666667     0.881166666667     0.000000000000     0          
T        Si     0.702133333333     0.888700000000     0.302533333333     0          
O        O      0.785500000000     0.666666666667     0.166666666667     0          
T        Si     0.813433333333     0.702133333333     0.135866666667     0          
O        O      0.785500000000     0.785500000000     0.000000000000     0          
T        Si     0.777966666667     0.813433333333     0.302533333333     0          
O        O      0.666666666667     0.785500000000     0.166666666667     0          
T        Si     0.964533333333     0.777966666667     0.135866666667     0          
T        Si     0.702133333333     0.813433333333     0.197466666667     0          
T        Si     0.888700000000     0.702133333333     0.030800000000     0          
T        Si     0.853233333333     0.888700000000     0.197466666667     0          
T        Si     0.964533333333     0.853233333333     0.030800000000     0          
T        Si     0.777966666667     0.964533333333     0.197466666667     0          
T        Si     0.813433333333     0.777966666667     0.030800000000     0          
O        O      0.856266666667     0.712500000000     0.355200000000     0          
O        O      0.785500000000     0.666666666667     0.333333333333     0          
O        O      0.803133333333     0.691733333333     0.416666666667     0          
O        O      0.808633333333     0.737633333333     0.351200000000     0          
T        Si     0.813433333333     0.702133333333     0.364133333333     0          
O        O      0.810433333333     0.856266666667     0.521866666667     0          
O        O      0.785500000000     0.785500000000     0.500000000000     0          
O        O      0.778066666667     0.803133333333     0.583333333333     0          
O        O      0.737666666667     0.808633333333     0.517866666667     0          
T        Si     0.777966666667     0.813433333333     0.530800000000     0          
O        O      0.954166666667     0.810433333333     0.355200000000     0          
O        O      0.666666666667     0.785500000000     0.333333333333     0          
O        O      0.974933333333     0.778066666667     0.416666666667     0          
O        O      0.929033333333     0.737666666667     0.351200000000     0          
T        Si     0.964533333333     0.777966666667     0.364133333333     0          
O        O      0.810400000000     0.954166666667     0.521866666667     0          
O        O      0.881166666667     0.666666666667     0.500000000000     0          
O        O      0.863533333333     0.974933333333     0.583333333333     0          
O        O      0.858033333333     0.929033333333     0.517866666667     0          
T        Si     0.853233333333     0.964533333333     0.530800000000     0          
O        O      0.856233333333     0.810400000000     0.355200000000     0          
O        O      0.881166666667     0.881166666667     0.333333333333     0          
O        O      0.888600000000     0.863533333333     0.416666666667     0          
O        O      0.929000000000     0.858033333333     0.351200000000     0          
T        Si     0.888700000000     0.853233333333     0.364133333333     0          
O        O      0.712500000000     0.856233333333     0.521866666667     0          
O        O      0.666666666667     0.881166666667     0.500000000000     0          
O        O      0.691733333333     0.888600000000     0.583333333333     0          
O        O      0.737633333333     0.929000000000     0.517866666667     0          
T        Si     0.702133333333     0.888700000000     0.530800000000     0          
O        O      0.954166666667     0.810400000000     0.478133333333     0          
O        O      0.974933333333     0.863533333333     0.416666666667     0          
O        O      0.929033333333     0.858033333333     0.482133333333     0          
T        Si     0.964533333333     0.853233333333     0.469200000000     0          
O        O      0.810433333333     0.954166666667     0.644800000000     0          
O        O      0.778066666667     0.974933333333     0.583333333333     0          
O        O      0.737666666667     0.929033333333     0.648800000000     0          
T        Si     0.777966666667     0.964533333333     0.635866666667     0          
O        O      0.856266666667     0.810433333333     0.478133333333     0          
O        O      0.803133333333     0.778066666667     0.416666666667     0          
O        O      0.808633333333     0.737666666667     0.482133333333     0          
T        Si     0.813433333333     0.777966666667     0.469200000000     0          
O        O      0.712500000000     0.856266666667     0.644800000000     0          
O        O      0.691733333333     0.803133333333     0.583333333333     0          
O        O      0.737633333333     0.808633333333     0.648800000000     0          
T        Si     0.702133333333     0.813433333333     0.635866666667     0          
O        O      0.856233333333     0.712500000000     0.478133333333     0          
O        O      0.888600000000     0.691733333333     0.416666666667     0          
O        O      0.929000000000     0.737633333333     0.482133333333     0          
T        Si     0.888700000000     0.702133333333     0.469200000000     0          
O        O      0.810400000000     0.856233333333     0.644800000000     0          
O        O      0.863533333333     0.888600000000     0.583333333333     0          
O        O      0.858033333333     0.929000000000     0.648800000000     0          
T        Si     0.853233333333     0.888700000000     0.635866666667     0          
O        O      0.881166666667     0.666666666667     0.333333333333     0          
T        Si     0.853233333333     0.964533333333     0.635866666667     0          
O        O      0.881166666667     0.881166666667     0.500000000000     0          
T        Si     0.888700000000     0.853233333333     0.469200000000     0          
O        O      0.666666666667     0.881166666667     0.333333333333     0          
T        Si     0.702133333333     0.888700000000     0.635866666667     0          
O        O      0.785500000000     0.666666666667     0.500000000000     0          
T        Si     0.813433333333     0.702133333333     0.469200000000     0          
O        O      0.785500000000     0.785500000000     0.333333333333     0          
T        Si     0.777966666667     0.813433333333     0.635866666667     0          
O        O      0.666666666667     0.785500000000     0.500000000000     0          
T        Si     0.964533333333     0.777966666667     0.469200000000     0          
T        Si     0.702133333333     0.813433333333     0.530800000000     0          
T        Si     0.888700000000     0.702133333333     0.364133333333     0          
T        Si     0.853233333333     0.888700000000     0.530800000000     0          
T        Si     0.964533333333     0.853233333333     0.364133333333     0          
T        Si     0.777966666667     0.964533333333     0.530800000000     0          
T        Si     0.813433333333     0.777966666667     0.364133333333     0          
O        O      0.856266666667     0.712500000000     0.688533333333     0          
O        O      0.785500000000     0.666666666667     0.666666666667     0          
O        O      0.803133333333     0.691733333333     0.750000000000     0          
O        O      0.808633333333     0.737633333333     0.684533333333     0          
T        Si     0.813433333333     0.702133333333     0.697466666667     0          
O        O      0.810433333333     0.856266666667     0.855200000000     0          
O        O      0.785500000000     0.785500000000     0.833333333333     0          
O        O      0.778066666667     0.803133333333     0.916666666667     0          
O        O      0.737666666667     0.808633333333     0.851200000000     0          
T        Si     0.777966666667     0.813433333333     0.864133333333     0          
O        O      0.954166666667     0.810433333333     0.688533333333     0          
O        O      0.666666666667     0.785500000000     0.666666666667     0          
O        O      0.974933333333     0.778066666667     0.750000000000     0          
O        O      0.929033333333     0.737666666667     0.684533333333     0          
T        Si     0.964533333333     0.777966666667     0.697466666667     0          
O        O      0.810400000000     0.954166666667     0.855200000000     0          
O        O      0.881166666667     0.666666666667     0.833333333333     0          
O        O      0.863533333333     0.974933333333     0.916666666667     0          
O        O      0.858033333333     0.929033333333     0.851200000000     0          
T        Si     0.853233333333     0.964533333333     0.864133333333     0          
O        O      0.856233333333     0.810400000000     0.688533333333     0          
O        O      0.881166666667     0.881166666667     0.666666666667     0          
O        O      0.888600000000     0.863533333333     0.750000000000     0          
O        O      0.929000000000     0.858033333333     0.684533333333     0          
T        Si     0.888700000000     0.853233333333     0.697466666667     0          
O        O      0.712500000000     0.856233333333     0.855200000000     0          
O        O      0.666666666667     0.881166666667     0.833333333333     0          
O        O      0.691733333333     0.888600000000     0.916666666667     0          
O        O      0.737633333333     0.929000000000     0.851200000000     0          
T        Si     0.702133333333     0.888700000000     0.864133333333     0          
O        O      0.954166666667     0.810400000000     0.811466666667     0          
O        O      0.974933333333     0.863533333333     0.750000000000     0          
O        O      0.929033333333     0.858033333333     0.815466666667     0          
T        Si     0.964533333333     0.853233333333     0.802533333333     0          
O        O      0.810433333333     0.954166666667     0.978133333333     0          
O        O      0.778066666667     0.974933333333     0.916666666667     0          
O        O      0.737666666667     0.929033333333     0.982133333333     0          
T        Si     0.777966666667     0.964533333333     0.969200000000     0          
O        O      0.856266666667     0.810433333333     0.811466666667     0          
O        O      0.803133333333     0.778066666667     0.750000000000     0          
O        O      0.808633333333     0.737666666667     0.815466666667     0          
T        Si     0.813433333333     0.777966666667     0.802533333333     0          
O        O      0.712500000000     0.856266666667     0.978133333333     0          
O        O      0.691733333333     0.803133333333     0.916666666667     0          
O        O      0.737633333333     0.808633333333     0.982133333333     0          
T        Si     0.702133333333     0.813433333333     0.969200000000     0          
O        O      0.856233333333     0.712500000000     0.811466666667     0          
O        O      0.888600000000     0.691733333333     0.750000000000     0          
O        O      0.929000000000     0.737633333333     0.815466666667     0          
T        Si     0.888700000000     0.702133333333     0.802533333333     0          
O        O      0.810400000000     0.856233333333     0.978133333333     0          
O        O      0.863533333333     0.888600000000     0.916666666667     0          
O        O      0.858033333333     0.929000000000     0.982133333333     0          
T        Si     0.853233333333     0.888700000000     0.969200000000     0          
O        O      0.881166666667     0.666666666667     0.666666666667     0          
T        Si     0.853233333333     0.964533333333     0.969200000000     0          
O        O      0.881166666667     0.881166666667     0.833333333333     0          
T        Si     0.888700000000     0.853233333333     0.802533333333     0          
O        O      0.666666666667     0.881166666667     0.666666666667     0          
T        Si     0.702133333333     0.888700000000     0.969200000000     0          
O        O      0.785500000000     0.666666666667     0.833333333333     0          
T        Si     0.813433333333     0.702133333333     0.802533333333     0          
O        O      0.785500000000     0.785500000000     0.666666666667     0          
T        Si     0.777966666667     0.813433333333     0.969200000000     0          
O        O      0.666666666667     0.785500000000     0.833333333333     0          
T        Si     0.964533333333     0.777966666667     0.802533333333     0          
T        Si     0.702133333333     0.813433333333     0.864133333333     0          
T        Si     0.888700000000     0.702133333333     0.697466666667     0          
T        Si     0.853233333333     0.888700000000     0.864133333333     0          
T        Si     0.964533333333     0.853233333333     0.697466666667     0          
T        Si     0.777966666667     0.964533333333     0.864133333333     0          
T        Si     0.813433333333     0.777966666667     0.697466666667     0          


