data_zeolite

_audit_creation_method RASPA-1.0
_audit_creation_date 2021-1-30
_audit_author_name ''

_cell_length_a    28.208
_cell_length_b    36.41
_cell_length_c    29.908
_cell_angle_alpha 90
_cell_angle_beta  98.989
_cell_angle_gamma 90
_cell_volume      30339.9

_symmetry_cell_setting          monoclinic
_symmetry_space_group_name_Hall 'P 1'
_symmetry_space_group_name_H-M  'P 1'
_symmetry_Int_Tables_number     1

_symmetry_equiv_pos_as_xyz 'x,y,z'

loop_
_atom_site_label
_atom_site_type_symbol
_atom_site_fract_x
_atom_site_fract_y
_atom_site_fract_z
_atom_site_charge
O        O      0.323000000000     0.000000000000     0.153050000000     0          
O        O      0.346150000000     0.463950000000     0.083225000000     0          
O        O      0.264450000000     0.000000000000     0.075950000000     0          
O        O      0.304500000000     0.036100000000     0.224400000000     0          
O        O      0.162750000000     0.337400000000     0.094300000000     0          
O        O      0.194600000000     0.397500000000     0.060600000000     0          
O        O      0.175450000000     0.397250000000     0.143725000000     0          
O        O      0.250000000000     0.360900000000     0.125000000000     0          
O        O      0.156600000000     0.409700000000     0.225475000000     0          
O        O      0.250000000000     0.411700000000     0.000000000000     0          
T        Si     0.199200000000     0.420650000000     0.015675000000     0          
T        Si     0.195900000000     0.373300000000     0.105725000000     0          
T        Si     0.143200000000     0.421000000000     0.172925000000     0          
T        Si     0.320000000000     0.000000000000     0.098850000000     0          
T        Si     0.291900000000     0.000000000000     0.193850000000     0          
O        O      0.177000000000     0.000000000000     0.096950000000     0          
O        O      0.153850000000     0.463950000000     0.166775000000     0          
O        O      0.235550000000     0.000000000000     0.174050000000     0          
O        O      0.195500000000     0.036100000000     0.025600000000     0          
O        O      0.337250000000     0.337400000000     0.155700000000     0          
O        O      0.305400000000     0.397500000000     0.189400000000     0          
O        O      0.324550000000     0.397250000000     0.106275000000     0          
O        O      0.343400000000     0.409700000000     0.024525000000     0          
T        Si     0.300800000000     0.420650000000     0.234325000000     0          
T        Si     0.304100000000     0.373300000000     0.144275000000     0          
T        Si     0.356800000000     0.421000000000     0.077075000000     0          
T        Si     0.180000000000     0.000000000000     0.151150000000     0          
T        Si     0.208100000000     0.000000000000     0.056150000000     0          
O        O      0.153850000000     0.036050000000     0.166775000000     0          
O        O      0.195500000000     0.463900000000     0.025600000000     0          
O        O      0.337250000000     0.162600000000     0.155700000000     0          
O        O      0.305400000000     0.102500000000     0.189400000000     0          
O        O      0.324550000000     0.102750000000     0.106275000000     0          
O        O      0.250000000000     0.139100000000     0.125000000000     0          
O        O      0.343400000000     0.090300000000     0.024525000000     0          
O        O      0.250000000000     0.088300000000     0.000000000000     0          
T        Si     0.300800000000     0.079350000000     0.234325000000     0          
T        Si     0.304100000000     0.126700000000     0.144275000000     0          
T        Si     0.356800000000     0.079000000000     0.077075000000     0          
O        O      0.346150000000     0.036050000000     0.083225000000     0          
O        O      0.304500000000     0.463900000000     0.224400000000     0          
O        O      0.162750000000     0.162600000000     0.094300000000     0          
O        O      0.194600000000     0.102500000000     0.060600000000     0          
O        O      0.175450000000     0.102750000000     0.143725000000     0          
O        O      0.156600000000     0.090300000000     0.225475000000     0          
T        Si     0.199200000000     0.079350000000     0.015675000000     0          
T        Si     0.195900000000     0.126700000000     0.105725000000     0          
T        Si     0.143200000000     0.079000000000     0.172925000000     0          
O        O      0.073000000000     0.250000000000     0.153050000000     0          
O        O      0.096150000000     0.213950000000     0.083225000000     0          
O        O      0.014450000000     0.250000000000     0.075950000000     0          
O        O      0.054500000000     0.286100000000     0.224400000000     0          
O        O      0.412750000000     0.087400000000     0.094300000000     0          
O        O      0.444600000000     0.147500000000     0.060600000000     0          
O        O      0.425450000000     0.147250000000     0.143725000000     0          
O        O      0.000000000000     0.110900000000     0.125000000000     0          
O        O      0.406600000000     0.159700000000     0.225475000000     0          
O        O      0.000000000000     0.161700000000     0.000000000000     0          
T        Si     0.449200000000     0.170650000000     0.015675000000     0          
T        Si     0.445900000000     0.123300000000     0.105725000000     0          
T        Si     0.393200000000     0.171000000000     0.172925000000     0          
T        Si     0.070000000000     0.250000000000     0.098850000000     0          
T        Si     0.041900000000     0.250000000000     0.193850000000     0          
O        O      0.427000000000     0.250000000000     0.096950000000     0          
O        O      0.403850000000     0.213950000000     0.166775000000     0          
O        O      0.485550000000     0.250000000000     0.174050000000     0          
O        O      0.445500000000     0.286100000000     0.025600000000     0          
O        O      0.087250000000     0.087400000000     0.155700000000     0          
O        O      0.055400000000     0.147500000000     0.189400000000     0          
O        O      0.074550000000     0.147250000000     0.106275000000     0          
O        O      0.093400000000     0.159700000000     0.024525000000     0          
T        Si     0.050800000000     0.170650000000     0.234325000000     0          
T        Si     0.054100000000     0.123300000000     0.144275000000     0          
T        Si     0.106800000000     0.171000000000     0.077075000000     0          
T        Si     0.430000000000     0.250000000000     0.151150000000     0          
T        Si     0.458100000000     0.250000000000     0.056150000000     0          
O        O      0.403850000000     0.286050000000     0.166775000000     0          
O        O      0.445500000000     0.213900000000     0.025600000000     0          
O        O      0.087250000000     0.412600000000     0.155700000000     0          
O        O      0.055400000000     0.352500000000     0.189400000000     0          
O        O      0.074550000000     0.352750000000     0.106275000000     0          
O        O      0.000000000000     0.389100000000     0.125000000000     0          
O        O      0.093400000000     0.340300000000     0.024525000000     0          
O        O      0.000000000000     0.338300000000     0.000000000000     0          
T        Si     0.050800000000     0.329350000000     0.234325000000     0          
T        Si     0.054100000000     0.376700000000     0.144275000000     0          
T        Si     0.106800000000     0.329000000000     0.077075000000     0          
O        O      0.096150000000     0.286050000000     0.083225000000     0          
O        O      0.054500000000     0.213900000000     0.224400000000     0          
O        O      0.412750000000     0.412600000000     0.094300000000     0          
O        O      0.444600000000     0.352500000000     0.060600000000     0          
O        O      0.425450000000     0.352750000000     0.143725000000     0          
O        O      0.406600000000     0.340300000000     0.225475000000     0          
T        Si     0.449200000000     0.329350000000     0.015675000000     0          
T        Si     0.445900000000     0.376700000000     0.105725000000     0          
T        Si     0.393200000000     0.329000000000     0.172925000000     0          
O        O      0.323000000000     0.000000000000     0.403050000000     0          
O        O      0.346150000000     0.463950000000     0.333225000000     0          
O        O      0.264450000000     0.000000000000     0.325950000000     0          
O        O      0.304500000000     0.036100000000     0.474400000000     0          
O        O      0.162750000000     0.337400000000     0.344300000000     0          
O        O      0.194600000000     0.397500000000     0.310600000000     0          
O        O      0.175450000000     0.397250000000     0.393725000000     0          
O        O      0.250000000000     0.360900000000     0.375000000000     0          
O        O      0.156600000000     0.409700000000     0.475475000000     0          
O        O      0.250000000000     0.411700000000     0.250000000000     0          
T        Si     0.199200000000     0.420650000000     0.265675000000     0          
T        Si     0.195900000000     0.373300000000     0.355725000000     0          
T        Si     0.143200000000     0.421000000000     0.422925000000     0          
T        Si     0.320000000000     0.000000000000     0.348850000000     0          
T        Si     0.291900000000     0.000000000000     0.443850000000     0          
O        O      0.177000000000     0.000000000000     0.346950000000     0          
O        O      0.153850000000     0.463950000000     0.416775000000     0          
O        O      0.235550000000     0.000000000000     0.424050000000     0          
O        O      0.195500000000     0.036100000000     0.275600000000     0          
O        O      0.337250000000     0.337400000000     0.405700000000     0          
O        O      0.305400000000     0.397500000000     0.439400000000     0          
O        O      0.324550000000     0.397250000000     0.356275000000     0          
O        O      0.343400000000     0.409700000000     0.274525000000     0          
T        Si     0.300800000000     0.420650000000     0.484325000000     0          
T        Si     0.304100000000     0.373300000000     0.394275000000     0          
T        Si     0.356800000000     0.421000000000     0.327075000000     0          
T        Si     0.180000000000     0.000000000000     0.401150000000     0          
T        Si     0.208100000000     0.000000000000     0.306150000000     0          
O        O      0.153850000000     0.036050000000     0.416775000000     0          
O        O      0.195500000000     0.463900000000     0.275600000000     0          
O        O      0.337250000000     0.162600000000     0.405700000000     0          
O        O      0.305400000000     0.102500000000     0.439400000000     0          
O        O      0.324550000000     0.102750000000     0.356275000000     0          
O        O      0.250000000000     0.139100000000     0.375000000000     0          
O        O      0.343400000000     0.090300000000     0.274525000000     0          
O        O      0.250000000000     0.088300000000     0.250000000000     0          
T        Si     0.300800000000     0.079350000000     0.484325000000     0          
T        Si     0.304100000000     0.126700000000     0.394275000000     0          
T        Si     0.356800000000     0.079000000000     0.327075000000     0          
O        O      0.346150000000     0.036050000000     0.333225000000     0          
O        O      0.304500000000     0.463900000000     0.474400000000     0          
O        O      0.162750000000     0.162600000000     0.344300000000     0          
O        O      0.194600000000     0.102500000000     0.310600000000     0          
O        O      0.175450000000     0.102750000000     0.393725000000     0          
O        O      0.156600000000     0.090300000000     0.475475000000     0          
T        Si     0.199200000000     0.079350000000     0.265675000000     0          
T        Si     0.195900000000     0.126700000000     0.355725000000     0          
T        Si     0.143200000000     0.079000000000     0.422925000000     0          
O        O      0.073000000000     0.250000000000     0.403050000000     0          
O        O      0.096150000000     0.213950000000     0.333225000000     0          
O        O      0.014450000000     0.250000000000     0.325950000000     0          
O        O      0.054500000000     0.286100000000     0.474400000000     0          
O        O      0.412750000000     0.087400000000     0.344300000000     0          
O        O      0.444600000000     0.147500000000     0.310600000000     0          
O        O      0.425450000000     0.147250000000     0.393725000000     0          
O        O      0.000000000000     0.110900000000     0.375000000000     0          
O        O      0.406600000000     0.159700000000     0.475475000000     0          
O        O      0.000000000000     0.161700000000     0.250000000000     0          
T        Si     0.449200000000     0.170650000000     0.265675000000     0          
T        Si     0.445900000000     0.123300000000     0.355725000000     0          
T        Si     0.393200000000     0.171000000000     0.422925000000     0          
T        Si     0.070000000000     0.250000000000     0.348850000000     0          
T        Si     0.041900000000     0.250000000000     0.443850000000     0          
O        O      0.427000000000     0.250000000000     0.346950000000     0          
O        O      0.403850000000     0.213950000000     0.416775000000     0          
O        O      0.485550000000     0.250000000000     0.424050000000     0          
O        O      0.445500000000     0.286100000000     0.275600000000     0          
O        O      0.087250000000     0.087400000000     0.405700000000     0          
O        O      0.055400000000     0.147500000000     0.439400000000     0          
O        O      0.074550000000     0.147250000000     0.356275000000     0          
O        O      0.093400000000     0.159700000000     0.274525000000     0          
T        Si     0.050800000000     0.170650000000     0.484325000000     0          
T        Si     0.054100000000     0.123300000000     0.394275000000     0          
T        Si     0.106800000000     0.171000000000     0.327075000000     0          
T        Si     0.430000000000     0.250000000000     0.401150000000     0          
T        Si     0.458100000000     0.250000000000     0.306150000000     0          
O        O      0.403850000000     0.286050000000     0.416775000000     0          
O        O      0.445500000000     0.213900000000     0.275600000000     0          
O        O      0.087250000000     0.412600000000     0.405700000000     0          
O        O      0.055400000000     0.352500000000     0.439400000000     0          
O        O      0.074550000000     0.352750000000     0.356275000000     0          
O        O      0.000000000000     0.389100000000     0.375000000000     0          
O        O      0.093400000000     0.340300000000     0.274525000000     0          
O        O      0.000000000000     0.338300000000     0.250000000000     0          
T        Si     0.050800000000     0.329350000000     0.484325000000     0          
T        Si     0.054100000000     0.376700000000     0.394275000000     0          
T        Si     0.106800000000     0.329000000000     0.327075000000     0          
O        O      0.096150000000     0.286050000000     0.333225000000     0          
O        O      0.054500000000     0.213900000000     0.474400000000     0          
O        O      0.412750000000     0.412600000000     0.344300000000     0          
O        O      0.444600000000     0.352500000000     0.310600000000     0          
O        O      0.425450000000     0.352750000000     0.393725000000     0          
O        O      0.406600000000     0.340300000000     0.475475000000     0          
T        Si     0.449200000000     0.329350000000     0.265675000000     0          
T        Si     0.445900000000     0.376700000000     0.355725000000     0          
T        Si     0.393200000000     0.329000000000     0.422925000000     0          
O        O      0.323000000000     0.000000000000     0.653050000000     0          
O        O      0.346150000000     0.463950000000     0.583225000000     0          
O        O      0.264450000000     0.000000000000     0.575950000000     0          
O        O      0.304500000000     0.036100000000     0.724400000000     0          
O        O      0.162750000000     0.337400000000     0.594300000000     0          
O        O      0.194600000000     0.397500000000     0.560600000000     0          
O        O      0.175450000000     0.397250000000     0.643725000000     0          
O        O      0.250000000000     0.360900000000     0.625000000000     0          
O        O      0.156600000000     0.409700000000     0.725475000000     0          
O        O      0.250000000000     0.411700000000     0.500000000000     0          
T        Si     0.199200000000     0.420650000000     0.515675000000     0          
T        Si     0.195900000000     0.373300000000     0.605725000000     0          
T        Si     0.143200000000     0.421000000000     0.672925000000     0          
T        Si     0.320000000000     0.000000000000     0.598850000000     0          
T        Si     0.291900000000     0.000000000000     0.693850000000     0          
O        O      0.177000000000     0.000000000000     0.596950000000     0          
O        O      0.153850000000     0.463950000000     0.666775000000     0          
O        O      0.235550000000     0.000000000000     0.674050000000     0          
O        O      0.195500000000     0.036100000000     0.525600000000     0          
O        O      0.337250000000     0.337400000000     0.655700000000     0          
O        O      0.305400000000     0.397500000000     0.689400000000     0          
O        O      0.324550000000     0.397250000000     0.606275000000     0          
O        O      0.343400000000     0.409700000000     0.524525000000     0          
T        Si     0.300800000000     0.420650000000     0.734325000000     0          
T        Si     0.304100000000     0.373300000000     0.644275000000     0          
T        Si     0.356800000000     0.421000000000     0.577075000000     0          
T        Si     0.180000000000     0.000000000000     0.651150000000     0          
T        Si     0.208100000000     0.000000000000     0.556150000000     0          
O        O      0.153850000000     0.036050000000     0.666775000000     0          
O        O      0.195500000000     0.463900000000     0.525600000000     0          
O        O      0.337250000000     0.162600000000     0.655700000000     0          
O        O      0.305400000000     0.102500000000     0.689400000000     0          
O        O      0.324550000000     0.102750000000     0.606275000000     0          
O        O      0.250000000000     0.139100000000     0.625000000000     0          
O        O      0.343400000000     0.090300000000     0.524525000000     0          
O        O      0.250000000000     0.088300000000     0.500000000000     0          
T        Si     0.300800000000     0.079350000000     0.734325000000     0          
T        Si     0.304100000000     0.126700000000     0.644275000000     0          
T        Si     0.356800000000     0.079000000000     0.577075000000     0          
O        O      0.346150000000     0.036050000000     0.583225000000     0          
O        O      0.304500000000     0.463900000000     0.724400000000     0          
O        O      0.162750000000     0.162600000000     0.594300000000     0          
O        O      0.194600000000     0.102500000000     0.560600000000     0          
O        O      0.175450000000     0.102750000000     0.643725000000     0          
O        O      0.156600000000     0.090300000000     0.725475000000     0          
T        Si     0.199200000000     0.079350000000     0.515675000000     0          
T        Si     0.195900000000     0.126700000000     0.605725000000     0          
T        Si     0.143200000000     0.079000000000     0.672925000000     0          
O        O      0.073000000000     0.250000000000     0.653050000000     0          
O        O      0.096150000000     0.213950000000     0.583225000000     0          
O        O      0.014450000000     0.250000000000     0.575950000000     0          
O        O      0.054500000000     0.286100000000     0.724400000000     0          
O        O      0.412750000000     0.087400000000     0.594300000000     0          
O        O      0.444600000000     0.147500000000     0.560600000000     0          
O        O      0.425450000000     0.147250000000     0.643725000000     0          
O        O      0.000000000000     0.110900000000     0.625000000000     0          
O        O      0.406600000000     0.159700000000     0.725475000000     0          
O        O      0.000000000000     0.161700000000     0.500000000000     0          
T        Si     0.449200000000     0.170650000000     0.515675000000     0          
T        Si     0.445900000000     0.123300000000     0.605725000000     0          
T        Si     0.393200000000     0.171000000000     0.672925000000     0          
T        Si     0.070000000000     0.250000000000     0.598850000000     0          
T        Si     0.041900000000     0.250000000000     0.693850000000     0          
O        O      0.427000000000     0.250000000000     0.596950000000     0          
O        O      0.403850000000     0.213950000000     0.666775000000     0          
O        O      0.485550000000     0.250000000000     0.674050000000     0          
O        O      0.445500000000     0.286100000000     0.525600000000     0          
O        O      0.087250000000     0.087400000000     0.655700000000     0          
O        O      0.055400000000     0.147500000000     0.689400000000     0          
O        O      0.074550000000     0.147250000000     0.606275000000     0          
O        O      0.093400000000     0.159700000000     0.524525000000     0          
T        Si     0.050800000000     0.170650000000     0.734325000000     0          
T        Si     0.054100000000     0.123300000000     0.644275000000     0          
T        Si     0.106800000000     0.171000000000     0.577075000000     0          
T        Si     0.430000000000     0.250000000000     0.651150000000     0          
T        Si     0.458100000000     0.250000000000     0.556150000000     0          
O        O      0.403850000000     0.286050000000     0.666775000000     0          
O        O      0.445500000000     0.213900000000     0.525600000000     0          
O        O      0.087250000000     0.412600000000     0.655700000000     0          
O        O      0.055400000000     0.352500000000     0.689400000000     0          
O        O      0.074550000000     0.352750000000     0.606275000000     0          
O        O      0.000000000000     0.389100000000     0.625000000000     0          
O        O      0.093400000000     0.340300000000     0.524525000000     0          
O        O      0.000000000000     0.338300000000     0.500000000000     0          
T        Si     0.050800000000     0.329350000000     0.734325000000     0          
T        Si     0.054100000000     0.376700000000     0.644275000000     0          
T        Si     0.106800000000     0.329000000000     0.577075000000     0          
O        O      0.096150000000     0.286050000000     0.583225000000     0          
O        O      0.054500000000     0.213900000000     0.724400000000     0          
O        O      0.412750000000     0.412600000000     0.594300000000     0          
O        O      0.444600000000     0.352500000000     0.560600000000     0          
O        O      0.425450000000     0.352750000000     0.643725000000     0          
O        O      0.406600000000     0.340300000000     0.725475000000     0          
T        Si     0.449200000000     0.329350000000     0.515675000000     0          
T        Si     0.445900000000     0.376700000000     0.605725000000     0          
T        Si     0.393200000000     0.329000000000     0.672925000000     0          
O        O      0.323000000000     0.000000000000     0.903050000000     0          
O        O      0.346150000000     0.463950000000     0.833225000000     0          
O        O      0.264450000000     0.000000000000     0.825950000000     0          
O        O      0.304500000000     0.036100000000     0.974400000000     0          
O        O      0.162750000000     0.337400000000     0.844300000000     0          
O        O      0.194600000000     0.397500000000     0.810600000000     0          
O        O      0.175450000000     0.397250000000     0.893725000000     0          
O        O      0.250000000000     0.360900000000     0.875000000000     0          
O        O      0.156600000000     0.409700000000     0.975475000000     0          
O        O      0.250000000000     0.411700000000     0.750000000000     0          
T        Si     0.199200000000     0.420650000000     0.765675000000     0          
T        Si     0.195900000000     0.373300000000     0.855725000000     0          
T        Si     0.143200000000     0.421000000000     0.922925000000     0          
T        Si     0.320000000000     0.000000000000     0.848850000000     0          
T        Si     0.291900000000     0.000000000000     0.943850000000     0          
O        O      0.177000000000     0.000000000000     0.846950000000     0          
O        O      0.153850000000     0.463950000000     0.916775000000     0          
O        O      0.235550000000     0.000000000000     0.924050000000     0          
O        O      0.195500000000     0.036100000000     0.775600000000     0          
O        O      0.337250000000     0.337400000000     0.905700000000     0          
O        O      0.305400000000     0.397500000000     0.939400000000     0          
O        O      0.324550000000     0.397250000000     0.856275000000     0          
O        O      0.343400000000     0.409700000000     0.774525000000     0          
T        Si     0.300800000000     0.420650000000     0.984325000000     0          
T        Si     0.304100000000     0.373300000000     0.894275000000     0          
T        Si     0.356800000000     0.421000000000     0.827075000000     0          
T        Si     0.180000000000     0.000000000000     0.901150000000     0          
T        Si     0.208100000000     0.000000000000     0.806150000000     0          
O        O      0.153850000000     0.036050000000     0.916775000000     0          
O        O      0.195500000000     0.463900000000     0.775600000000     0          
O        O      0.337250000000     0.162600000000     0.905700000000     0          
O        O      0.305400000000     0.102500000000     0.939400000000     0          
O        O      0.324550000000     0.102750000000     0.856275000000     0          
O        O      0.250000000000     0.139100000000     0.875000000000     0          
O        O      0.343400000000     0.090300000000     0.774525000000     0          
O        O      0.250000000000     0.088300000000     0.750000000000     0          
T        Si     0.300800000000     0.079350000000     0.984325000000     0          
T        Si     0.304100000000     0.126700000000     0.894275000000     0          
T        Si     0.356800000000     0.079000000000     0.827075000000     0          
O        O      0.346150000000     0.036050000000     0.833225000000     0          
O        O      0.304500000000     0.463900000000     0.974400000000     0          
O        O      0.162750000000     0.162600000000     0.844300000000     0          
O        O      0.194600000000     0.102500000000     0.810600000000     0          
O        O      0.175450000000     0.102750000000     0.893725000000     0          
O        O      0.156600000000     0.090300000000     0.975475000000     0          
T        Si     0.199200000000     0.079350000000     0.765675000000     0          
T        Si     0.195900000000     0.126700000000     0.855725000000     0          
T        Si     0.143200000000     0.079000000000     0.922925000000     0          
O        O      0.073000000000     0.250000000000     0.903050000000     0          
O        O      0.096150000000     0.213950000000     0.833225000000     0          
O        O      0.014450000000     0.250000000000     0.825950000000     0          
O        O      0.054500000000     0.286100000000     0.974400000000     0          
O        O      0.412750000000     0.087400000000     0.844300000000     0          
O        O      0.444600000000     0.147500000000     0.810600000000     0          
O        O      0.425450000000     0.147250000000     0.893725000000     0          
O        O      0.000000000000     0.110900000000     0.875000000000     0          
O        O      0.406600000000     0.159700000000     0.975475000000     0          
O        O      0.000000000000     0.161700000000     0.750000000000     0          
T        Si     0.449200000000     0.170650000000     0.765675000000     0          
T        Si     0.445900000000     0.123300000000     0.855725000000     0          
T        Si     0.393200000000     0.171000000000     0.922925000000     0          
T        Si     0.070000000000     0.250000000000     0.848850000000     0          
T        Si     0.041900000000     0.250000000000     0.943850000000     0          
O        O      0.427000000000     0.250000000000     0.846950000000     0          
O        O      0.403850000000     0.213950000000     0.916775000000     0          
O        O      0.485550000000     0.250000000000     0.924050000000     0          
O        O      0.445500000000     0.286100000000     0.775600000000     0          
O        O      0.087250000000     0.087400000000     0.905700000000     0          
O        O      0.055400000000     0.147500000000     0.939400000000     0          
O        O      0.074550000000     0.147250000000     0.856275000000     0          
O        O      0.093400000000     0.159700000000     0.774525000000     0          
T        Si     0.050800000000     0.170650000000     0.984325000000     0          
T        Si     0.054100000000     0.123300000000     0.894275000000     0          
T        Si     0.106800000000     0.171000000000     0.827075000000     0          
T        Si     0.430000000000     0.250000000000     0.901150000000     0          
T        Si     0.458100000000     0.250000000000     0.806150000000     0          
O        O      0.403850000000     0.286050000000     0.916775000000     0          
O        O      0.445500000000     0.213900000000     0.775600000000     0          
O        O      0.087250000000     0.412600000000     0.905700000000     0          
O        O      0.055400000000     0.352500000000     0.939400000000     0          
O        O      0.074550000000     0.352750000000     0.856275000000     0          
O        O      0.000000000000     0.389100000000     0.875000000000     0          
O        O      0.093400000000     0.340300000000     0.774525000000     0          
O        O      0.000000000000     0.338300000000     0.750000000000     0          
T        Si     0.050800000000     0.329350000000     0.984325000000     0          
T        Si     0.054100000000     0.376700000000     0.894275000000     0          
T        Si     0.106800000000     0.329000000000     0.827075000000     0          
O        O      0.096150000000     0.286050000000     0.833225000000     0          
O        O      0.054500000000     0.213900000000     0.974400000000     0          
O        O      0.412750000000     0.412600000000     0.844300000000     0          
O        O      0.444600000000     0.352500000000     0.810600000000     0          
O        O      0.425450000000     0.352750000000     0.893725000000     0          
O        O      0.406600000000     0.340300000000     0.975475000000     0          
T        Si     0.449200000000     0.329350000000     0.765675000000     0          
T        Si     0.445900000000     0.376700000000     0.855725000000     0          
T        Si     0.393200000000     0.329000000000     0.922925000000     0          
O        O      0.323000000000     0.500000000000     0.153050000000     0          
O        O      0.346150000000     0.963950000000     0.083225000000     0          
O        O      0.264450000000     0.500000000000     0.075950000000     0          
O        O      0.304500000000     0.536100000000     0.224400000000     0          
O        O      0.162750000000     0.837400000000     0.094300000000     0          
O        O      0.194600000000     0.897500000000     0.060600000000     0          
O        O      0.175450000000     0.897250000000     0.143725000000     0          
O        O      0.250000000000     0.860900000000     0.125000000000     0          
O        O      0.156600000000     0.909700000000     0.225475000000     0          
O        O      0.250000000000     0.911700000000     0.000000000000     0          
T        Si     0.199200000000     0.920650000000     0.015675000000     0          
T        Si     0.195900000000     0.873300000000     0.105725000000     0          
T        Si     0.143200000000     0.921000000000     0.172925000000     0          
T        Si     0.320000000000     0.500000000000     0.098850000000     0          
T        Si     0.291900000000     0.500000000000     0.193850000000     0          
O        O      0.177000000000     0.500000000000     0.096950000000     0          
O        O      0.153850000000     0.963950000000     0.166775000000     0          
O        O      0.235550000000     0.500000000000     0.174050000000     0          
O        O      0.195500000000     0.536100000000     0.025600000000     0          
O        O      0.337250000000     0.837400000000     0.155700000000     0          
O        O      0.305400000000     0.897500000000     0.189400000000     0          
O        O      0.324550000000     0.897250000000     0.106275000000     0          
O        O      0.343400000000     0.909700000000     0.024525000000     0          
T        Si     0.300800000000     0.920650000000     0.234325000000     0          
T        Si     0.304100000000     0.873300000000     0.144275000000     0          
T        Si     0.356800000000     0.921000000000     0.077075000000     0          
T        Si     0.180000000000     0.500000000000     0.151150000000     0          
T        Si     0.208100000000     0.500000000000     0.056150000000     0          
O        O      0.153850000000     0.536050000000     0.166775000000     0          
O        O      0.195500000000     0.963900000000     0.025600000000     0          
O        O      0.337250000000     0.662600000000     0.155700000000     0          
O        O      0.305400000000     0.602500000000     0.189400000000     0          
O        O      0.324550000000     0.602750000000     0.106275000000     0          
O        O      0.250000000000     0.639100000000     0.125000000000     0          
O        O      0.343400000000     0.590300000000     0.024525000000     0          
O        O      0.250000000000     0.588300000000     0.000000000000     0          
T        Si     0.300800000000     0.579350000000     0.234325000000     0          
T        Si     0.304100000000     0.626700000000     0.144275000000     0          
T        Si     0.356800000000     0.579000000000     0.077075000000     0          
O        O      0.346150000000     0.536050000000     0.083225000000     0          
O        O      0.304500000000     0.963900000000     0.224400000000     0          
O        O      0.162750000000     0.662600000000     0.094300000000     0          
O        O      0.194600000000     0.602500000000     0.060600000000     0          
O        O      0.175450000000     0.602750000000     0.143725000000     0          
O        O      0.156600000000     0.590300000000     0.225475000000     0          
T        Si     0.199200000000     0.579350000000     0.015675000000     0          
T        Si     0.195900000000     0.626700000000     0.105725000000     0          
T        Si     0.143200000000     0.579000000000     0.172925000000     0          
O        O      0.073000000000     0.750000000000     0.153050000000     0          
O        O      0.096150000000     0.713950000000     0.083225000000     0          
O        O      0.014450000000     0.750000000000     0.075950000000     0          
O        O      0.054500000000     0.786100000000     0.224400000000     0          
O        O      0.412750000000     0.587400000000     0.094300000000     0          
O        O      0.444600000000     0.647500000000     0.060600000000     0          
O        O      0.425450000000     0.647250000000     0.143725000000     0          
O        O      0.000000000000     0.610900000000     0.125000000000     0          
O        O      0.406600000000     0.659700000000     0.225475000000     0          
O        O      0.000000000000     0.661700000000     0.000000000000     0          
T        Si     0.449200000000     0.670650000000     0.015675000000     0          
T        Si     0.445900000000     0.623300000000     0.105725000000     0          
T        Si     0.393200000000     0.671000000000     0.172925000000     0          
T        Si     0.070000000000     0.750000000000     0.098850000000     0          
T        Si     0.041900000000     0.750000000000     0.193850000000     0          
O        O      0.427000000000     0.750000000000     0.096950000000     0          
O        O      0.403850000000     0.713950000000     0.166775000000     0          
O        O      0.485550000000     0.750000000000     0.174050000000     0          
O        O      0.445500000000     0.786100000000     0.025600000000     0          
O        O      0.087250000000     0.587400000000     0.155700000000     0          
O        O      0.055400000000     0.647500000000     0.189400000000     0          
O        O      0.074550000000     0.647250000000     0.106275000000     0          
O        O      0.093400000000     0.659700000000     0.024525000000     0          
T        Si     0.050800000000     0.670650000000     0.234325000000     0          
T        Si     0.054100000000     0.623300000000     0.144275000000     0          
T        Si     0.106800000000     0.671000000000     0.077075000000     0          
T        Si     0.430000000000     0.750000000000     0.151150000000     0          
T        Si     0.458100000000     0.750000000000     0.056150000000     0          
O        O      0.403850000000     0.786050000000     0.166775000000     0          
O        O      0.445500000000     0.713900000000     0.025600000000     0          
O        O      0.087250000000     0.912600000000     0.155700000000     0          
O        O      0.055400000000     0.852500000000     0.189400000000     0          
O        O      0.074550000000     0.852750000000     0.106275000000     0          
O        O      0.000000000000     0.889100000000     0.125000000000     0          
O        O      0.093400000000     0.840300000000     0.024525000000     0          
O        O      0.000000000000     0.838300000000     0.000000000000     0          
T        Si     0.050800000000     0.829350000000     0.234325000000     0          
T        Si     0.054100000000     0.876700000000     0.144275000000     0          
T        Si     0.106800000000     0.829000000000     0.077075000000     0          
O        O      0.096150000000     0.786050000000     0.083225000000     0          
O        O      0.054500000000     0.713900000000     0.224400000000     0          
O        O      0.412750000000     0.912600000000     0.094300000000     0          
O        O      0.444600000000     0.852500000000     0.060600000000     0          
O        O      0.425450000000     0.852750000000     0.143725000000     0          
O        O      0.406600000000     0.840300000000     0.225475000000     0          
T        Si     0.449200000000     0.829350000000     0.015675000000     0          
T        Si     0.445900000000     0.876700000000     0.105725000000     0          
T        Si     0.393200000000     0.829000000000     0.172925000000     0          
O        O      0.323000000000     0.500000000000     0.403050000000     0          
O        O      0.346150000000     0.963950000000     0.333225000000     0          
O        O      0.264450000000     0.500000000000     0.325950000000     0          
O        O      0.304500000000     0.536100000000     0.474400000000     0          
O        O      0.162750000000     0.837400000000     0.344300000000     0          
O        O      0.194600000000     0.897500000000     0.310600000000     0          
O        O      0.175450000000     0.897250000000     0.393725000000     0          
O        O      0.250000000000     0.860900000000     0.375000000000     0          
O        O      0.156600000000     0.909700000000     0.475475000000     0          
O        O      0.250000000000     0.911700000000     0.250000000000     0          
T        Si     0.199200000000     0.920650000000     0.265675000000     0          
T        Si     0.195900000000     0.873300000000     0.355725000000     0          
T        Si     0.143200000000     0.921000000000     0.422925000000     0          
T        Si     0.320000000000     0.500000000000     0.348850000000     0          
T        Si     0.291900000000     0.500000000000     0.443850000000     0          
O        O      0.177000000000     0.500000000000     0.346950000000     0          
O        O      0.153850000000     0.963950000000     0.416775000000     0          
O        O      0.235550000000     0.500000000000     0.424050000000     0          
O        O      0.195500000000     0.536100000000     0.275600000000     0          
O        O      0.337250000000     0.837400000000     0.405700000000     0          
O        O      0.305400000000     0.897500000000     0.439400000000     0          
O        O      0.324550000000     0.897250000000     0.356275000000     0          
O        O      0.343400000000     0.909700000000     0.274525000000     0          
T        Si     0.300800000000     0.920650000000     0.484325000000     0          
T        Si     0.304100000000     0.873300000000     0.394275000000     0          
T        Si     0.356800000000     0.921000000000     0.327075000000     0          
T        Si     0.180000000000     0.500000000000     0.401150000000     0          
T        Si     0.208100000000     0.500000000000     0.306150000000     0          
O        O      0.153850000000     0.536050000000     0.416775000000     0          
O        O      0.195500000000     0.963900000000     0.275600000000     0          
O        O      0.337250000000     0.662600000000     0.405700000000     0          
O        O      0.305400000000     0.602500000000     0.439400000000     0          
O        O      0.324550000000     0.602750000000     0.356275000000     0          
O        O      0.250000000000     0.639100000000     0.375000000000     0          
O        O      0.343400000000     0.590300000000     0.274525000000     0          
O        O      0.250000000000     0.588300000000     0.250000000000     0          
T        Si     0.300800000000     0.579350000000     0.484325000000     0          
T        Si     0.304100000000     0.626700000000     0.394275000000     0          
T        Si     0.356800000000     0.579000000000     0.327075000000     0          
O        O      0.346150000000     0.536050000000     0.333225000000     0          
O        O      0.304500000000     0.963900000000     0.474400000000     0          
O        O      0.162750000000     0.662600000000     0.344300000000     0          
O        O      0.194600000000     0.602500000000     0.310600000000     0          
O        O      0.175450000000     0.602750000000     0.393725000000     0          
O        O      0.156600000000     0.590300000000     0.475475000000     0          
T        Si     0.199200000000     0.579350000000     0.265675000000     0          
T        Si     0.195900000000     0.626700000000     0.355725000000     0          
T        Si     0.143200000000     0.579000000000     0.422925000000     0          
O        O      0.073000000000     0.750000000000     0.403050000000     0          
O        O      0.096150000000     0.713950000000     0.333225000000     0          
O        O      0.014450000000     0.750000000000     0.325950000000     0          
O        O      0.054500000000     0.786100000000     0.474400000000     0          
O        O      0.412750000000     0.587400000000     0.344300000000     0          
O        O      0.444600000000     0.647500000000     0.310600000000     0          
O        O      0.425450000000     0.647250000000     0.393725000000     0          
O        O      0.000000000000     0.610900000000     0.375000000000     0          
O        O      0.406600000000     0.659700000000     0.475475000000     0          
O        O      0.000000000000     0.661700000000     0.250000000000     0          
T        Si     0.449200000000     0.670650000000     0.265675000000     0          
T        Si     0.445900000000     0.623300000000     0.355725000000     0          
T        Si     0.393200000000     0.671000000000     0.422925000000     0          
T        Si     0.070000000000     0.750000000000     0.348850000000     0          
T        Si     0.041900000000     0.750000000000     0.443850000000     0          
O        O      0.427000000000     0.750000000000     0.346950000000     0          
O        O      0.403850000000     0.713950000000     0.416775000000     0          
O        O      0.485550000000     0.750000000000     0.424050000000     0          
O        O      0.445500000000     0.786100000000     0.275600000000     0          
O        O      0.087250000000     0.587400000000     0.405700000000     0          
O        O      0.055400000000     0.647500000000     0.439400000000     0          
O        O      0.074550000000     0.647250000000     0.356275000000     0          
O        O      0.093400000000     0.659700000000     0.274525000000     0          
T        Si     0.050800000000     0.670650000000     0.484325000000     0          
T        Si     0.054100000000     0.623300000000     0.394275000000     0          
T        Si     0.106800000000     0.671000000000     0.327075000000     0          
T        Si     0.430000000000     0.750000000000     0.401150000000     0          
T        Si     0.458100000000     0.750000000000     0.306150000000     0          
O        O      0.403850000000     0.786050000000     0.416775000000     0          
O        O      0.445500000000     0.713900000000     0.275600000000     0          
O        O      0.087250000000     0.912600000000     0.405700000000     0          
O        O      0.055400000000     0.852500000000     0.439400000000     0          
O        O      0.074550000000     0.852750000000     0.356275000000     0          
O        O      0.000000000000     0.889100000000     0.375000000000     0          
O        O      0.093400000000     0.840300000000     0.274525000000     0          
O        O      0.000000000000     0.838300000000     0.250000000000     0          
T        Si     0.050800000000     0.829350000000     0.484325000000     0          
T        Si     0.054100000000     0.876700000000     0.394275000000     0          
T        Si     0.106800000000     0.829000000000     0.327075000000     0          
O        O      0.096150000000     0.786050000000     0.333225000000     0          
O        O      0.054500000000     0.713900000000     0.474400000000     0          
O        O      0.412750000000     0.912600000000     0.344300000000     0          
O        O      0.444600000000     0.852500000000     0.310600000000     0          
O        O      0.425450000000     0.852750000000     0.393725000000     0          
O        O      0.406600000000     0.840300000000     0.475475000000     0          
T        Si     0.449200000000     0.829350000000     0.265675000000     0          
T        Si     0.445900000000     0.876700000000     0.355725000000     0          
T        Si     0.393200000000     0.829000000000     0.422925000000     0          
O        O      0.323000000000     0.500000000000     0.653050000000     0          
O        O      0.346150000000     0.963950000000     0.583225000000     0          
O        O      0.264450000000     0.500000000000     0.575950000000     0          
O        O      0.304500000000     0.536100000000     0.724400000000     0          
O        O      0.162750000000     0.837400000000     0.594300000000     0          
O        O      0.194600000000     0.897500000000     0.560600000000     0          
O        O      0.175450000000     0.897250000000     0.643725000000     0          
O        O      0.250000000000     0.860900000000     0.625000000000     0          
O        O      0.156600000000     0.909700000000     0.725475000000     0          
O        O      0.250000000000     0.911700000000     0.500000000000     0          
T        Si     0.199200000000     0.920650000000     0.515675000000     0          
T        Si     0.195900000000     0.873300000000     0.605725000000     0          
T        Si     0.143200000000     0.921000000000     0.672925000000     0          
T        Si     0.320000000000     0.500000000000     0.598850000000     0          
T        Si     0.291900000000     0.500000000000     0.693850000000     0          
O        O      0.177000000000     0.500000000000     0.596950000000     0          
O        O      0.153850000000     0.963950000000     0.666775000000     0          
O        O      0.235550000000     0.500000000000     0.674050000000     0          
O        O      0.195500000000     0.536100000000     0.525600000000     0          
O        O      0.337250000000     0.837400000000     0.655700000000     0          
O        O      0.305400000000     0.897500000000     0.689400000000     0          
O        O      0.324550000000     0.897250000000     0.606275000000     0          
O        O      0.343400000000     0.909700000000     0.524525000000     0          
T        Si     0.300800000000     0.920650000000     0.734325000000     0          
T        Si     0.304100000000     0.873300000000     0.644275000000     0          
T        Si     0.356800000000     0.921000000000     0.577075000000     0          
T        Si     0.180000000000     0.500000000000     0.651150000000     0          
T        Si     0.208100000000     0.500000000000     0.556150000000     0          
O        O      0.153850000000     0.536050000000     0.666775000000     0          
O        O      0.195500000000     0.963900000000     0.525600000000     0          
O        O      0.337250000000     0.662600000000     0.655700000000     0          
O        O      0.305400000000     0.602500000000     0.689400000000     0          
O        O      0.324550000000     0.602750000000     0.606275000000     0          
O        O      0.250000000000     0.639100000000     0.625000000000     0          
O        O      0.343400000000     0.590300000000     0.524525000000     0          
O        O      0.250000000000     0.588300000000     0.500000000000     0          
T        Si     0.300800000000     0.579350000000     0.734325000000     0          
T        Si     0.304100000000     0.626700000000     0.644275000000     0          
T        Si     0.356800000000     0.579000000000     0.577075000000     0          
O        O      0.346150000000     0.536050000000     0.583225000000     0          
O        O      0.304500000000     0.963900000000     0.724400000000     0          
O        O      0.162750000000     0.662600000000     0.594300000000     0          
O        O      0.194600000000     0.602500000000     0.560600000000     0          
O        O      0.175450000000     0.602750000000     0.643725000000     0          
O        O      0.156600000000     0.590300000000     0.725475000000     0          
T        Si     0.199200000000     0.579350000000     0.515675000000     0          
T        Si     0.195900000000     0.626700000000     0.605725000000     0          
T        Si     0.143200000000     0.579000000000     0.672925000000     0          
O        O      0.073000000000     0.750000000000     0.653050000000     0          
O        O      0.096150000000     0.713950000000     0.583225000000     0          
O        O      0.014450000000     0.750000000000     0.575950000000     0          
O        O      0.054500000000     0.786100000000     0.724400000000     0          
O        O      0.412750000000     0.587400000000     0.594300000000     0          
O        O      0.444600000000     0.647500000000     0.560600000000     0          
O        O      0.425450000000     0.647250000000     0.643725000000     0          
O        O      0.000000000000     0.610900000000     0.625000000000     0          
O        O      0.406600000000     0.659700000000     0.725475000000     0          
O        O      0.000000000000     0.661700000000     0.500000000000     0          
T        Si     0.449200000000     0.670650000000     0.515675000000     0          
T        Si     0.445900000000     0.623300000000     0.605725000000     0          
T        Si     0.393200000000     0.671000000000     0.672925000000     0          
T        Si     0.070000000000     0.750000000000     0.598850000000     0          
T        Si     0.041900000000     0.750000000000     0.693850000000     0          
O        O      0.427000000000     0.750000000000     0.596950000000     0          
O        O      0.403850000000     0.713950000000     0.666775000000     0          
O        O      0.485550000000     0.750000000000     0.674050000000     0          
O        O      0.445500000000     0.786100000000     0.525600000000     0          
O        O      0.087250000000     0.587400000000     0.655700000000     0          
O        O      0.055400000000     0.647500000000     0.689400000000     0          
O        O      0.074550000000     0.647250000000     0.606275000000     0          
O        O      0.093400000000     0.659700000000     0.524525000000     0          
T        Si     0.050800000000     0.670650000000     0.734325000000     0          
T        Si     0.054100000000     0.623300000000     0.644275000000     0          
T        Si     0.106800000000     0.671000000000     0.577075000000     0          
T        Si     0.430000000000     0.750000000000     0.651150000000     0          
T        Si     0.458100000000     0.750000000000     0.556150000000     0          
O        O      0.403850000000     0.786050000000     0.666775000000     0          
O        O      0.445500000000     0.713900000000     0.525600000000     0          
O        O      0.087250000000     0.912600000000     0.655700000000     0          
O        O      0.055400000000     0.852500000000     0.689400000000     0          
O        O      0.074550000000     0.852750000000     0.606275000000     0          
O        O      0.000000000000     0.889100000000     0.625000000000     0          
O        O      0.093400000000     0.840300000000     0.524525000000     0          
O        O      0.000000000000     0.838300000000     0.500000000000     0          
T        Si     0.050800000000     0.829350000000     0.734325000000     0          
T        Si     0.054100000000     0.876700000000     0.644275000000     0          
T        Si     0.106800000000     0.829000000000     0.577075000000     0          
O        O      0.096150000000     0.786050000000     0.583225000000     0          
O        O      0.054500000000     0.713900000000     0.724400000000     0          
O        O      0.412750000000     0.912600000000     0.594300000000     0          
O        O      0.444600000000     0.852500000000     0.560600000000     0          
O        O      0.425450000000     0.852750000000     0.643725000000     0          
O        O      0.406600000000     0.840300000000     0.725475000000     0          
T        Si     0.449200000000     0.829350000000     0.515675000000     0          
T        Si     0.445900000000     0.876700000000     0.605725000000     0          
T        Si     0.393200000000     0.829000000000     0.672925000000     0          
O        O      0.323000000000     0.500000000000     0.903050000000     0          
O        O      0.346150000000     0.963950000000     0.833225000000     0          
O        O      0.264450000000     0.500000000000     0.825950000000     0          
O        O      0.304500000000     0.536100000000     0.974400000000     0          
O        O      0.162750000000     0.837400000000     0.844300000000     0          
O        O      0.194600000000     0.897500000000     0.810600000000     0          
O        O      0.175450000000     0.897250000000     0.893725000000     0          
O        O      0.250000000000     0.860900000000     0.875000000000     0          
O        O      0.156600000000     0.909700000000     0.975475000000     0          
O        O      0.250000000000     0.911700000000     0.750000000000     0          
T        Si     0.199200000000     0.920650000000     0.765675000000     0          
T        Si     0.195900000000     0.873300000000     0.855725000000     0          
T        Si     0.143200000000     0.921000000000     0.922925000000     0          
T        Si     0.320000000000     0.500000000000     0.848850000000     0          
T        Si     0.291900000000     0.500000000000     0.943850000000     0          
O        O      0.177000000000     0.500000000000     0.846950000000     0          
O        O      0.153850000000     0.963950000000     0.916775000000     0          
O        O      0.235550000000     0.500000000000     0.924050000000     0          
O        O      0.195500000000     0.536100000000     0.775600000000     0          
O        O      0.337250000000     0.837400000000     0.905700000000     0          
O        O      0.305400000000     0.897500000000     0.939400000000     0          
O        O      0.324550000000     0.897250000000     0.856275000000     0          
O        O      0.343400000000     0.909700000000     0.774525000000     0          
T        Si     0.300800000000     0.920650000000     0.984325000000     0          
T        Si     0.304100000000     0.873300000000     0.894275000000     0          
T        Si     0.356800000000     0.921000000000     0.827075000000     0          
T        Si     0.180000000000     0.500000000000     0.901150000000     0          
T        Si     0.208100000000     0.500000000000     0.806150000000     0          
O        O      0.153850000000     0.536050000000     0.916775000000     0          
O        O      0.195500000000     0.963900000000     0.775600000000     0          
O        O      0.337250000000     0.662600000000     0.905700000000     0          
O        O      0.305400000000     0.602500000000     0.939400000000     0          
O        O      0.324550000000     0.602750000000     0.856275000000     0          
O        O      0.250000000000     0.639100000000     0.875000000000     0          
O        O      0.343400000000     0.590300000000     0.774525000000     0          
O        O      0.250000000000     0.588300000000     0.750000000000     0          
T        Si     0.300800000000     0.579350000000     0.984325000000     0          
T        Si     0.304100000000     0.626700000000     0.894275000000     0          
T        Si     0.356800000000     0.579000000000     0.827075000000     0          
O        O      0.346150000000     0.536050000000     0.833225000000     0          
O        O      0.304500000000     0.963900000000     0.974400000000     0          
O        O      0.162750000000     0.662600000000     0.844300000000     0          
O        O      0.194600000000     0.602500000000     0.810600000000     0          
O        O      0.175450000000     0.602750000000     0.893725000000     0          
O        O      0.156600000000     0.590300000000     0.975475000000     0          
T        Si     0.199200000000     0.579350000000     0.765675000000     0          
T        Si     0.195900000000     0.626700000000     0.855725000000     0          
T        Si     0.143200000000     0.579000000000     0.922925000000     0          
O        O      0.073000000000     0.750000000000     0.903050000000     0          
O        O      0.096150000000     0.713950000000     0.833225000000     0          
O        O      0.014450000000     0.750000000000     0.825950000000     0          
O        O      0.054500000000     0.786100000000     0.974400000000     0          
O        O      0.412750000000     0.587400000000     0.844300000000     0          
O        O      0.444600000000     0.647500000000     0.810600000000     0          
O        O      0.425450000000     0.647250000000     0.893725000000     0          
O        O      0.000000000000     0.610900000000     0.875000000000     0          
O        O      0.406600000000     0.659700000000     0.975475000000     0          
O        O      0.000000000000     0.661700000000     0.750000000000     0          
T        Si     0.449200000000     0.670650000000     0.765675000000     0          
T        Si     0.445900000000     0.623300000000     0.855725000000     0          
T        Si     0.393200000000     0.671000000000     0.922925000000     0          
T        Si     0.070000000000     0.750000000000     0.848850000000     0          
T        Si     0.041900000000     0.750000000000     0.943850000000     0          
O        O      0.427000000000     0.750000000000     0.846950000000     0          
O        O      0.403850000000     0.713950000000     0.916775000000     0          
O        O      0.485550000000     0.750000000000     0.924050000000     0          
O        O      0.445500000000     0.786100000000     0.775600000000     0          
O        O      0.087250000000     0.587400000000     0.905700000000     0          
O        O      0.055400000000     0.647500000000     0.939400000000     0          
O        O      0.074550000000     0.647250000000     0.856275000000     0          
O        O      0.093400000000     0.659700000000     0.774525000000     0          
T        Si     0.050800000000     0.670650000000     0.984325000000     0          
T        Si     0.054100000000     0.623300000000     0.894275000000     0          
T        Si     0.106800000000     0.671000000000     0.827075000000     0          
T        Si     0.430000000000     0.750000000000     0.901150000000     0          
T        Si     0.458100000000     0.750000000000     0.806150000000     0          
O        O      0.403850000000     0.786050000000     0.916775000000     0          
O        O      0.445500000000     0.713900000000     0.775600000000     0          
O        O      0.087250000000     0.912600000000     0.905700000000     0          
O        O      0.055400000000     0.852500000000     0.939400000000     0          
O        O      0.074550000000     0.852750000000     0.856275000000     0          
O        O      0.000000000000     0.889100000000     0.875000000000     0          
O        O      0.093400000000     0.840300000000     0.774525000000     0          
O        O      0.000000000000     0.838300000000     0.750000000000     0          
T        Si     0.050800000000     0.829350000000     0.984325000000     0          
T        Si     0.054100000000     0.876700000000     0.894275000000     0          
T        Si     0.106800000000     0.829000000000     0.827075000000     0          
O        O      0.096150000000     0.786050000000     0.833225000000     0          
O        O      0.054500000000     0.713900000000     0.974400000000     0          
O        O      0.412750000000     0.912600000000     0.844300000000     0          
O        O      0.444600000000     0.852500000000     0.810600000000     0          
O        O      0.425450000000     0.852750000000     0.893725000000     0          
O        O      0.406600000000     0.840300000000     0.975475000000     0          
T        Si     0.449200000000     0.829350000000     0.765675000000     0          
T        Si     0.445900000000     0.876700000000     0.855725000000     0          
T        Si     0.393200000000     0.829000000000     0.922925000000     0          
O        O      0.823000000000     0.000000000000     0.153050000000     0          
O        O      0.846150000000     0.463950000000     0.083225000000     0          
O        O      0.764450000000     0.000000000000     0.075950000000     0          
O        O      0.804500000000     0.036100000000     0.224400000000     0          
O        O      0.662750000000     0.337400000000     0.094300000000     0          
O        O      0.694600000000     0.397500000000     0.060600000000     0          
O        O      0.675450000000     0.397250000000     0.143725000000     0          
O        O      0.750000000000     0.360900000000     0.125000000000     0          
O        O      0.656600000000     0.409700000000     0.225475000000     0          
O        O      0.750000000000     0.411700000000     0.000000000000     0          
T        Si     0.699200000000     0.420650000000     0.015675000000     0          
T        Si     0.695900000000     0.373300000000     0.105725000000     0          
T        Si     0.643200000000     0.421000000000     0.172925000000     0          
T        Si     0.820000000000     0.000000000000     0.098850000000     0          
T        Si     0.791900000000     0.000000000000     0.193850000000     0          
O        O      0.677000000000     0.000000000000     0.096950000000     0          
O        O      0.653850000000     0.463950000000     0.166775000000     0          
O        O      0.735550000000     0.000000000000     0.174050000000     0          
O        O      0.695500000000     0.036100000000     0.025600000000     0          
O        O      0.837250000000     0.337400000000     0.155700000000     0          
O        O      0.805400000000     0.397500000000     0.189400000000     0          
O        O      0.824550000000     0.397250000000     0.106275000000     0          
O        O      0.843400000000     0.409700000000     0.024525000000     0          
T        Si     0.800800000000     0.420650000000     0.234325000000     0          
T        Si     0.804100000000     0.373300000000     0.144275000000     0          
T        Si     0.856800000000     0.421000000000     0.077075000000     0          
T        Si     0.680000000000     0.000000000000     0.151150000000     0          
T        Si     0.708100000000     0.000000000000     0.056150000000     0          
O        O      0.653850000000     0.036050000000     0.166775000000     0          
O        O      0.695500000000     0.463900000000     0.025600000000     0          
O        O      0.837250000000     0.162600000000     0.155700000000     0          
O        O      0.805400000000     0.102500000000     0.189400000000     0          
O        O      0.824550000000     0.102750000000     0.106275000000     0          
O        O      0.750000000000     0.139100000000     0.125000000000     0          
O        O      0.843400000000     0.090300000000     0.024525000000     0          
O        O      0.750000000000     0.088300000000     0.000000000000     0          
T        Si     0.800800000000     0.079350000000     0.234325000000     0          
T        Si     0.804100000000     0.126700000000     0.144275000000     0          
T        Si     0.856800000000     0.079000000000     0.077075000000     0          
O        O      0.846150000000     0.036050000000     0.083225000000     0          
O        O      0.804500000000     0.463900000000     0.224400000000     0          
O        O      0.662750000000     0.162600000000     0.094300000000     0          
O        O      0.694600000000     0.102500000000     0.060600000000     0          
O        O      0.675450000000     0.102750000000     0.143725000000     0          
O        O      0.656600000000     0.090300000000     0.225475000000     0          
T        Si     0.699200000000     0.079350000000     0.015675000000     0          
T        Si     0.695900000000     0.126700000000     0.105725000000     0          
T        Si     0.643200000000     0.079000000000     0.172925000000     0          
O        O      0.573000000000     0.250000000000     0.153050000000     0          
O        O      0.596150000000     0.213950000000     0.083225000000     0          
O        O      0.514450000000     0.250000000000     0.075950000000     0          
O        O      0.554500000000     0.286100000000     0.224400000000     0          
O        O      0.912750000000     0.087400000000     0.094300000000     0          
O        O      0.944600000000     0.147500000000     0.060600000000     0          
O        O      0.925450000000     0.147250000000     0.143725000000     0          
O        O      0.500000000000     0.110900000000     0.125000000000     0          
O        O      0.906600000000     0.159700000000     0.225475000000     0          
O        O      0.500000000000     0.161700000000     0.000000000000     0          
T        Si     0.949200000000     0.170650000000     0.015675000000     0          
T        Si     0.945900000000     0.123300000000     0.105725000000     0          
T        Si     0.893200000000     0.171000000000     0.172925000000     0          
T        Si     0.570000000000     0.250000000000     0.098850000000     0          
T        Si     0.541900000000     0.250000000000     0.193850000000     0          
O        O      0.927000000000     0.250000000000     0.096950000000     0          
O        O      0.903850000000     0.213950000000     0.166775000000     0          
O        O      0.985550000000     0.250000000000     0.174050000000     0          
O        O      0.945500000000     0.286100000000     0.025600000000     0          
O        O      0.587250000000     0.087400000000     0.155700000000     0          
O        O      0.555400000000     0.147500000000     0.189400000000     0          
O        O      0.574550000000     0.147250000000     0.106275000000     0          
O        O      0.593400000000     0.159700000000     0.024525000000     0          
T        Si     0.550800000000     0.170650000000     0.234325000000     0          
T        Si     0.554100000000     0.123300000000     0.144275000000     0          
T        Si     0.606800000000     0.171000000000     0.077075000000     0          
T        Si     0.930000000000     0.250000000000     0.151150000000     0          
T        Si     0.958100000000     0.250000000000     0.056150000000     0          
O        O      0.903850000000     0.286050000000     0.166775000000     0          
O        O      0.945500000000     0.213900000000     0.025600000000     0          
O        O      0.587250000000     0.412600000000     0.155700000000     0          
O        O      0.555400000000     0.352500000000     0.189400000000     0          
O        O      0.574550000000     0.352750000000     0.106275000000     0          
O        O      0.500000000000     0.389100000000     0.125000000000     0          
O        O      0.593400000000     0.340300000000     0.024525000000     0          
O        O      0.500000000000     0.338300000000     0.000000000000     0          
T        Si     0.550800000000     0.329350000000     0.234325000000     0          
T        Si     0.554100000000     0.376700000000     0.144275000000     0          
T        Si     0.606800000000     0.329000000000     0.077075000000     0          
O        O      0.596150000000     0.286050000000     0.083225000000     0          
O        O      0.554500000000     0.213900000000     0.224400000000     0          
O        O      0.912750000000     0.412600000000     0.094300000000     0          
O        O      0.944600000000     0.352500000000     0.060600000000     0          
O        O      0.925450000000     0.352750000000     0.143725000000     0          
O        O      0.906600000000     0.340300000000     0.225475000000     0          
T        Si     0.949200000000     0.329350000000     0.015675000000     0          
T        Si     0.945900000000     0.376700000000     0.105725000000     0          
T        Si     0.893200000000     0.329000000000     0.172925000000     0          
O        O      0.823000000000     0.000000000000     0.403050000000     0          
O        O      0.846150000000     0.463950000000     0.333225000000     0          
O        O      0.764450000000     0.000000000000     0.325950000000     0          
O        O      0.804500000000     0.036100000000     0.474400000000     0          
O        O      0.662750000000     0.337400000000     0.344300000000     0          
O        O      0.694600000000     0.397500000000     0.310600000000     0          
O        O      0.675450000000     0.397250000000     0.393725000000     0          
O        O      0.750000000000     0.360900000000     0.375000000000     0          
O        O      0.656600000000     0.409700000000     0.475475000000     0          
O        O      0.750000000000     0.411700000000     0.250000000000     0          
T        Si     0.699200000000     0.420650000000     0.265675000000     0          
T        Si     0.695900000000     0.373300000000     0.355725000000     0          
T        Si     0.643200000000     0.421000000000     0.422925000000     0          
T        Si     0.820000000000     0.000000000000     0.348850000000     0          
T        Si     0.791900000000     0.000000000000     0.443850000000     0          
O        O      0.677000000000     0.000000000000     0.346950000000     0          
O        O      0.653850000000     0.463950000000     0.416775000000     0          
O        O      0.735550000000     0.000000000000     0.424050000000     0          
O        O      0.695500000000     0.036100000000     0.275600000000     0          
O        O      0.837250000000     0.337400000000     0.405700000000     0          
O        O      0.805400000000     0.397500000000     0.439400000000     0          
O        O      0.824550000000     0.397250000000     0.356275000000     0          
O        O      0.843400000000     0.409700000000     0.274525000000     0          
T        Si     0.800800000000     0.420650000000     0.484325000000     0          
T        Si     0.804100000000     0.373300000000     0.394275000000     0          
T        Si     0.856800000000     0.421000000000     0.327075000000     0          
T        Si     0.680000000000     0.000000000000     0.401150000000     0          
T        Si     0.708100000000     0.000000000000     0.306150000000     0          
O        O      0.653850000000     0.036050000000     0.416775000000     0          
O        O      0.695500000000     0.463900000000     0.275600000000     0          
O        O      0.837250000000     0.162600000000     0.405700000000     0          
O        O      0.805400000000     0.102500000000     0.439400000000     0          
O        O      0.824550000000     0.102750000000     0.356275000000     0          
O        O      0.750000000000     0.139100000000     0.375000000000     0          
O        O      0.843400000000     0.090300000000     0.274525000000     0          
O        O      0.750000000000     0.088300000000     0.250000000000     0          
T        Si     0.800800000000     0.079350000000     0.484325000000     0          
T        Si     0.804100000000     0.126700000000     0.394275000000     0          
T        Si     0.856800000000     0.079000000000     0.327075000000     0          
O        O      0.846150000000     0.036050000000     0.333225000000     0          
O        O      0.804500000000     0.463900000000     0.474400000000     0          
O        O      0.662750000000     0.162600000000     0.344300000000     0          
O        O      0.694600000000     0.102500000000     0.310600000000     0          
O        O      0.675450000000     0.102750000000     0.393725000000     0          
O        O      0.656600000000     0.090300000000     0.475475000000     0          
T        Si     0.699200000000     0.079350000000     0.265675000000     0          
T        Si     0.695900000000     0.126700000000     0.355725000000     0          
T        Si     0.643200000000     0.079000000000     0.422925000000     0          
O        O      0.573000000000     0.250000000000     0.403050000000     0          
O        O      0.596150000000     0.213950000000     0.333225000000     0          
O        O      0.514450000000     0.250000000000     0.325950000000     0          
O        O      0.554500000000     0.286100000000     0.474400000000     0          
O        O      0.912750000000     0.087400000000     0.344300000000     0          
O        O      0.944600000000     0.147500000000     0.310600000000     0          
O        O      0.925450000000     0.147250000000     0.393725000000     0          
O        O      0.500000000000     0.110900000000     0.375000000000     0          
O        O      0.906600000000     0.159700000000     0.475475000000     0          
O        O      0.500000000000     0.161700000000     0.250000000000     0          
T        Si     0.949200000000     0.170650000000     0.265675000000     0          
T        Si     0.945900000000     0.123300000000     0.355725000000     0          
T        Si     0.893200000000     0.171000000000     0.422925000000     0          
T        Si     0.570000000000     0.250000000000     0.348850000000     0          
T        Si     0.541900000000     0.250000000000     0.443850000000     0          
O        O      0.927000000000     0.250000000000     0.346950000000     0          
O        O      0.903850000000     0.213950000000     0.416775000000     0          
O        O      0.985550000000     0.250000000000     0.424050000000     0          
O        O      0.945500000000     0.286100000000     0.275600000000     0          
O        O      0.587250000000     0.087400000000     0.405700000000     0          
O        O      0.555400000000     0.147500000000     0.439400000000     0          
O        O      0.574550000000     0.147250000000     0.356275000000     0          
O        O      0.593400000000     0.159700000000     0.274525000000     0          
T        Si     0.550800000000     0.170650000000     0.484325000000     0          
T        Si     0.554100000000     0.123300000000     0.394275000000     0          
T        Si     0.606800000000     0.171000000000     0.327075000000     0          
T        Si     0.930000000000     0.250000000000     0.401150000000     0          
T        Si     0.958100000000     0.250000000000     0.306150000000     0          
O        O      0.903850000000     0.286050000000     0.416775000000     0          
O        O      0.945500000000     0.213900000000     0.275600000000     0          
O        O      0.587250000000     0.412600000000     0.405700000000     0          
O        O      0.555400000000     0.352500000000     0.439400000000     0          
O        O      0.574550000000     0.352750000000     0.356275000000     0          
O        O      0.500000000000     0.389100000000     0.375000000000     0          
O        O      0.593400000000     0.340300000000     0.274525000000     0          
O        O      0.500000000000     0.338300000000     0.250000000000     0          
T        Si     0.550800000000     0.329350000000     0.484325000000     0          
T        Si     0.554100000000     0.376700000000     0.394275000000     0          
T        Si     0.606800000000     0.329000000000     0.327075000000     0          
O        O      0.596150000000     0.286050000000     0.333225000000     0          
O        O      0.554500000000     0.213900000000     0.474400000000     0          
O        O      0.912750000000     0.412600000000     0.344300000000     0          
O        O      0.944600000000     0.352500000000     0.310600000000     0          
O        O      0.925450000000     0.352750000000     0.393725000000     0          
O        O      0.906600000000     0.340300000000     0.475475000000     0          
T        Si     0.949200000000     0.329350000000     0.265675000000     0          
T        Si     0.945900000000     0.376700000000     0.355725000000     0          
T        Si     0.893200000000     0.329000000000     0.422925000000     0          
O        O      0.823000000000     0.000000000000     0.653050000000     0          
O        O      0.846150000000     0.463950000000     0.583225000000     0          
O        O      0.764450000000     0.000000000000     0.575950000000     0          
O        O      0.804500000000     0.036100000000     0.724400000000     0          
O        O      0.662750000000     0.337400000000     0.594300000000     0          
O        O      0.694600000000     0.397500000000     0.560600000000     0          
O        O      0.675450000000     0.397250000000     0.643725000000     0          
O        O      0.750000000000     0.360900000000     0.625000000000     0          
O        O      0.656600000000     0.409700000000     0.725475000000     0          
O        O      0.750000000000     0.411700000000     0.500000000000     0          
T        Si     0.699200000000     0.420650000000     0.515675000000     0          
T        Si     0.695900000000     0.373300000000     0.605725000000     0          
T        Si     0.643200000000     0.421000000000     0.672925000000     0          
T        Si     0.820000000000     0.000000000000     0.598850000000     0          
T        Si     0.791900000000     0.000000000000     0.693850000000     0          
O        O      0.677000000000     0.000000000000     0.596950000000     0          
O        O      0.653850000000     0.463950000000     0.666775000000     0          
O        O      0.735550000000     0.000000000000     0.674050000000     0          
O        O      0.695500000000     0.036100000000     0.525600000000     0          
O        O      0.837250000000     0.337400000000     0.655700000000     0          
O        O      0.805400000000     0.397500000000     0.689400000000     0          
O        O      0.824550000000     0.397250000000     0.606275000000     0          
O        O      0.843400000000     0.409700000000     0.524525000000     0          
T        Si     0.800800000000     0.420650000000     0.734325000000     0          
T        Si     0.804100000000     0.373300000000     0.644275000000     0          
T        Si     0.856800000000     0.421000000000     0.577075000000     0          
T        Si     0.680000000000     0.000000000000     0.651150000000     0          
T        Si     0.708100000000     0.000000000000     0.556150000000     0          
O        O      0.653850000000     0.036050000000     0.666775000000     0          
O        O      0.695500000000     0.463900000000     0.525600000000     0          
O        O      0.837250000000     0.162600000000     0.655700000000     0          
O        O      0.805400000000     0.102500000000     0.689400000000     0          
O        O      0.824550000000     0.102750000000     0.606275000000     0          
O        O      0.750000000000     0.139100000000     0.625000000000     0          
O        O      0.843400000000     0.090300000000     0.524525000000     0          
O        O      0.750000000000     0.088300000000     0.500000000000     0          
T        Si     0.800800000000     0.079350000000     0.734325000000     0          
T        Si     0.804100000000     0.126700000000     0.644275000000     0          
T        Si     0.856800000000     0.079000000000     0.577075000000     0          
O        O      0.846150000000     0.036050000000     0.583225000000     0          
O        O      0.804500000000     0.463900000000     0.724400000000     0          
O        O      0.662750000000     0.162600000000     0.594300000000     0          
O        O      0.694600000000     0.102500000000     0.560600000000     0          
O        O      0.675450000000     0.102750000000     0.643725000000     0          
O        O      0.656600000000     0.090300000000     0.725475000000     0          
T        Si     0.699200000000     0.079350000000     0.515675000000     0          
T        Si     0.695900000000     0.126700000000     0.605725000000     0          
T        Si     0.643200000000     0.079000000000     0.672925000000     0          
O        O      0.573000000000     0.250000000000     0.653050000000     0          
O        O      0.596150000000     0.213950000000     0.583225000000     0          
O        O      0.514450000000     0.250000000000     0.575950000000     0          
O        O      0.554500000000     0.286100000000     0.724400000000     0          
O        O      0.912750000000     0.087400000000     0.594300000000     0          
O        O      0.944600000000     0.147500000000     0.560600000000     0          
O        O      0.925450000000     0.147250000000     0.643725000000     0          
O        O      0.500000000000     0.110900000000     0.625000000000     0          
O        O      0.906600000000     0.159700000000     0.725475000000     0          
O        O      0.500000000000     0.161700000000     0.500000000000     0          
T        Si     0.949200000000     0.170650000000     0.515675000000     0          
T        Si     0.945900000000     0.123300000000     0.605725000000     0          
T        Si     0.893200000000     0.171000000000     0.672925000000     0          
T        Si     0.570000000000     0.250000000000     0.598850000000     0          
T        Si     0.541900000000     0.250000000000     0.693850000000     0          
O        O      0.927000000000     0.250000000000     0.596950000000     0          
O        O      0.903850000000     0.213950000000     0.666775000000     0          
O        O      0.985550000000     0.250000000000     0.674050000000     0          
O        O      0.945500000000     0.286100000000     0.525600000000     0          
O        O      0.587250000000     0.087400000000     0.655700000000     0          
O        O      0.555400000000     0.147500000000     0.689400000000     0          
O        O      0.574550000000     0.147250000000     0.606275000000     0          
O        O      0.593400000000     0.159700000000     0.524525000000     0          
T        Si     0.550800000000     0.170650000000     0.734325000000     0          
T        Si     0.554100000000     0.123300000000     0.644275000000     0          
T        Si     0.606800000000     0.171000000000     0.577075000000     0          
T        Si     0.930000000000     0.250000000000     0.651150000000     0          
T        Si     0.958100000000     0.250000000000     0.556150000000     0          
O        O      0.903850000000     0.286050000000     0.666775000000     0          
O        O      0.945500000000     0.213900000000     0.525600000000     0          
O        O      0.587250000000     0.412600000000     0.655700000000     0          
O        O      0.555400000000     0.352500000000     0.689400000000     0          
O        O      0.574550000000     0.352750000000     0.606275000000     0          
O        O      0.500000000000     0.389100000000     0.625000000000     0          
O        O      0.593400000000     0.340300000000     0.524525000000     0          
O        O      0.500000000000     0.338300000000     0.500000000000     0          
T        Si     0.550800000000     0.329350000000     0.734325000000     0          
T        Si     0.554100000000     0.376700000000     0.644275000000     0          
T        Si     0.606800000000     0.329000000000     0.577075000000     0          
O        O      0.596150000000     0.286050000000     0.583225000000     0          
O        O      0.554500000000     0.213900000000     0.724400000000     0          
O        O      0.912750000000     0.412600000000     0.594300000000     0          
O        O      0.944600000000     0.352500000000     0.560600000000     0          
O        O      0.925450000000     0.352750000000     0.643725000000     0          
O        O      0.906600000000     0.340300000000     0.725475000000     0          
T        Si     0.949200000000     0.329350000000     0.515675000000     0          
T        Si     0.945900000000     0.376700000000     0.605725000000     0          
T        Si     0.893200000000     0.329000000000     0.672925000000     0          
O        O      0.823000000000     0.000000000000     0.903050000000     0          
O        O      0.846150000000     0.463950000000     0.833225000000     0          
O        O      0.764450000000     0.000000000000     0.825950000000     0          
O        O      0.804500000000     0.036100000000     0.974400000000     0          
O        O      0.662750000000     0.337400000000     0.844300000000     0          
O        O      0.694600000000     0.397500000000     0.810600000000     0          
O        O      0.675450000000     0.397250000000     0.893725000000     0          
O        O      0.750000000000     0.360900000000     0.875000000000     0          
O        O      0.656600000000     0.409700000000     0.975475000000     0          
O        O      0.750000000000     0.411700000000     0.750000000000     0          
T        Si     0.699200000000     0.420650000000     0.765675000000     0          
T        Si     0.695900000000     0.373300000000     0.855725000000     0          
T        Si     0.643200000000     0.421000000000     0.922925000000     0          
T        Si     0.820000000000     0.000000000000     0.848850000000     0          
T        Si     0.791900000000     0.000000000000     0.943850000000     0          
O        O      0.677000000000     0.000000000000     0.846950000000     0          
O        O      0.653850000000     0.463950000000     0.916775000000     0          
O        O      0.735550000000     0.000000000000     0.924050000000     0          
O        O      0.695500000000     0.036100000000     0.775600000000     0          
O        O      0.837250000000     0.337400000000     0.905700000000     0          
O        O      0.805400000000     0.397500000000     0.939400000000     0          
O        O      0.824550000000     0.397250000000     0.856275000000     0          
O        O      0.843400000000     0.409700000000     0.774525000000     0          
T        Si     0.800800000000     0.420650000000     0.984325000000     0          
T        Si     0.804100000000     0.373300000000     0.894275000000     0          
T        Si     0.856800000000     0.421000000000     0.827075000000     0          
T        Si     0.680000000000     0.000000000000     0.901150000000     0          
T        Si     0.708100000000     0.000000000000     0.806150000000     0          
O        O      0.653850000000     0.036050000000     0.916775000000     0          
O        O      0.695500000000     0.463900000000     0.775600000000     0          
O        O      0.837250000000     0.162600000000     0.905700000000     0          
O        O      0.805400000000     0.102500000000     0.939400000000     0          
O        O      0.824550000000     0.102750000000     0.856275000000     0          
O        O      0.750000000000     0.139100000000     0.875000000000     0          
O        O      0.843400000000     0.090300000000     0.774525000000     0          
O        O      0.750000000000     0.088300000000     0.750000000000     0          
T        Si     0.800800000000     0.079350000000     0.984325000000     0          
T        Si     0.804100000000     0.126700000000     0.894275000000     0          
T        Si     0.856800000000     0.079000000000     0.827075000000     0          
O        O      0.846150000000     0.036050000000     0.833225000000     0          
O        O      0.804500000000     0.463900000000     0.974400000000     0          
O        O      0.662750000000     0.162600000000     0.844300000000     0          
O        O      0.694600000000     0.102500000000     0.810600000000     0          
O        O      0.675450000000     0.102750000000     0.893725000000     0          
O        O      0.656600000000     0.090300000000     0.975475000000     0          
T        Si     0.699200000000     0.079350000000     0.765675000000     0          
T        Si     0.695900000000     0.126700000000     0.855725000000     0          
T        Si     0.643200000000     0.079000000000     0.922925000000     0          
O        O      0.573000000000     0.250000000000     0.903050000000     0          
O        O      0.596150000000     0.213950000000     0.833225000000     0          
O        O      0.514450000000     0.250000000000     0.825950000000     0          
O        O      0.554500000000     0.286100000000     0.974400000000     0          
O        O      0.912750000000     0.087400000000     0.844300000000     0          
O        O      0.944600000000     0.147500000000     0.810600000000     0          
O        O      0.925450000000     0.147250000000     0.893725000000     0          
O        O      0.500000000000     0.110900000000     0.875000000000     0          
O        O      0.906600000000     0.159700000000     0.975475000000     0          
O        O      0.500000000000     0.161700000000     0.750000000000     0          
T        Si     0.949200000000     0.170650000000     0.765675000000     0          
T        Si     0.945900000000     0.123300000000     0.855725000000     0          
T        Si     0.893200000000     0.171000000000     0.922925000000     0          
T        Si     0.570000000000     0.250000000000     0.848850000000     0          
T        Si     0.541900000000     0.250000000000     0.943850000000     0          
O        O      0.927000000000     0.250000000000     0.846950000000     0          
O        O      0.903850000000     0.213950000000     0.916775000000     0          
O        O      0.985550000000     0.250000000000     0.924050000000     0          
O        O      0.945500000000     0.286100000000     0.775600000000     0          
O        O      0.587250000000     0.087400000000     0.905700000000     0          
O        O      0.555400000000     0.147500000000     0.939400000000     0          
O        O      0.574550000000     0.147250000000     0.856275000000     0          
O        O      0.593400000000     0.159700000000     0.774525000000     0          
T        Si     0.550800000000     0.170650000000     0.984325000000     0          
T        Si     0.554100000000     0.123300000000     0.894275000000     0          
T        Si     0.606800000000     0.171000000000     0.827075000000     0          
T        Si     0.930000000000     0.250000000000     0.901150000000     0          
T        Si     0.958100000000     0.250000000000     0.806150000000     0          
O        O      0.903850000000     0.286050000000     0.916775000000     0          
O        O      0.945500000000     0.213900000000     0.775600000000     0          
O        O      0.587250000000     0.412600000000     0.905700000000     0          
O        O      0.555400000000     0.352500000000     0.939400000000     0          
O        O      0.574550000000     0.352750000000     0.856275000000     0          
O        O      0.500000000000     0.389100000000     0.875000000000     0          
O        O      0.593400000000     0.340300000000     0.774525000000     0          
O        O      0.500000000000     0.338300000000     0.750000000000     0          
T        Si     0.550800000000     0.329350000000     0.984325000000     0          
T        Si     0.554100000000     0.376700000000     0.894275000000     0          
T        Si     0.606800000000     0.329000000000     0.827075000000     0          
O        O      0.596150000000     0.286050000000     0.833225000000     0          
O        O      0.554500000000     0.213900000000     0.974400000000     0          
O        O      0.912750000000     0.412600000000     0.844300000000     0          
O        O      0.944600000000     0.352500000000     0.810600000000     0          
O        O      0.925450000000     0.352750000000     0.893725000000     0          
O        O      0.906600000000     0.340300000000     0.975475000000     0          
T        Si     0.949200000000     0.329350000000     0.765675000000     0          
T        Si     0.945900000000     0.376700000000     0.855725000000     0          
T        Si     0.893200000000     0.329000000000     0.922925000000     0          
O        O      0.823000000000     0.500000000000     0.153050000000     0          
O        O      0.846150000000     0.963950000000     0.083225000000     0          
O        O      0.764450000000     0.500000000000     0.075950000000     0          
O        O      0.804500000000     0.536100000000     0.224400000000     0          
O        O      0.662750000000     0.837400000000     0.094300000000     0          
O        O      0.694600000000     0.897500000000     0.060600000000     0          
O        O      0.675450000000     0.897250000000     0.143725000000     0          
O        O      0.750000000000     0.860900000000     0.125000000000     0          
O        O      0.656600000000     0.909700000000     0.225475000000     0          
O        O      0.750000000000     0.911700000000     0.000000000000     0          
T        Si     0.699200000000     0.920650000000     0.015675000000     0          
T        Si     0.695900000000     0.873300000000     0.105725000000     0          
T        Si     0.643200000000     0.921000000000     0.172925000000     0          
T        Si     0.820000000000     0.500000000000     0.098850000000     0          
T        Si     0.791900000000     0.500000000000     0.193850000000     0          
O        O      0.677000000000     0.500000000000     0.096950000000     0          
O        O      0.653850000000     0.963950000000     0.166775000000     0          
O        O      0.735550000000     0.500000000000     0.174050000000     0          
O        O      0.695500000000     0.536100000000     0.025600000000     0          
O        O      0.837250000000     0.837400000000     0.155700000000     0          
O        O      0.805400000000     0.897500000000     0.189400000000     0          
O        O      0.824550000000     0.897250000000     0.106275000000     0          
O        O      0.843400000000     0.909700000000     0.024525000000     0          
T        Si     0.800800000000     0.920650000000     0.234325000000     0          
T        Si     0.804100000000     0.873300000000     0.144275000000     0          
T        Si     0.856800000000     0.921000000000     0.077075000000     0          
T        Si     0.680000000000     0.500000000000     0.151150000000     0          
T        Si     0.708100000000     0.500000000000     0.056150000000     0          
O        O      0.653850000000     0.536050000000     0.166775000000     0          
O        O      0.695500000000     0.963900000000     0.025600000000     0          
O        O      0.837250000000     0.662600000000     0.155700000000     0          
O        O      0.805400000000     0.602500000000     0.189400000000     0          
O        O      0.824550000000     0.602750000000     0.106275000000     0          
O        O      0.750000000000     0.639100000000     0.125000000000     0          
O        O      0.843400000000     0.590300000000     0.024525000000     0          
O        O      0.750000000000     0.588300000000     0.000000000000     0          
T        Si     0.800800000000     0.579350000000     0.234325000000     0          
T        Si     0.804100000000     0.626700000000     0.144275000000     0          
T        Si     0.856800000000     0.579000000000     0.077075000000     0          
O        O      0.846150000000     0.536050000000     0.083225000000     0          
O        O      0.804500000000     0.963900000000     0.224400000000     0          
O        O      0.662750000000     0.662600000000     0.094300000000     0          
O        O      0.694600000000     0.602500000000     0.060600000000     0          
O        O      0.675450000000     0.602750000000     0.143725000000     0          
O        O      0.656600000000     0.590300000000     0.225475000000     0          
T        Si     0.699200000000     0.579350000000     0.015675000000     0          
T        Si     0.695900000000     0.626700000000     0.105725000000     0          
T        Si     0.643200000000     0.579000000000     0.172925000000     0          
O        O      0.573000000000     0.750000000000     0.153050000000     0          
O        O      0.596150000000     0.713950000000     0.083225000000     0          
O        O      0.514450000000     0.750000000000     0.075950000000     0          
O        O      0.554500000000     0.786100000000     0.224400000000     0          
O        O      0.912750000000     0.587400000000     0.094300000000     0          
O        O      0.944600000000     0.647500000000     0.060600000000     0          
O        O      0.925450000000     0.647250000000     0.143725000000     0          
O        O      0.500000000000     0.610900000000     0.125000000000     0          
O        O      0.906600000000     0.659700000000     0.225475000000     0          
O        O      0.500000000000     0.661700000000     0.000000000000     0          
T        Si     0.949200000000     0.670650000000     0.015675000000     0          
T        Si     0.945900000000     0.623300000000     0.105725000000     0          
T        Si     0.893200000000     0.671000000000     0.172925000000     0          
T        Si     0.570000000000     0.750000000000     0.098850000000     0          
T        Si     0.541900000000     0.750000000000     0.193850000000     0          
O        O      0.927000000000     0.750000000000     0.096950000000     0          
O        O      0.903850000000     0.713950000000     0.166775000000     0          
O        O      0.985550000000     0.750000000000     0.174050000000     0          
O        O      0.945500000000     0.786100000000     0.025600000000     0          
O        O      0.587250000000     0.587400000000     0.155700000000     0          
O        O      0.555400000000     0.647500000000     0.189400000000     0          
O        O      0.574550000000     0.647250000000     0.106275000000     0          
O        O      0.593400000000     0.659700000000     0.024525000000     0          
T        Si     0.550800000000     0.670650000000     0.234325000000     0          
T        Si     0.554100000000     0.623300000000     0.144275000000     0          
T        Si     0.606800000000     0.671000000000     0.077075000000     0          
T        Si     0.930000000000     0.750000000000     0.151150000000     0          
T        Si     0.958100000000     0.750000000000     0.056150000000     0          
O        O      0.903850000000     0.786050000000     0.166775000000     0          
O        O      0.945500000000     0.713900000000     0.025600000000     0          
O        O      0.587250000000     0.912600000000     0.155700000000     0          
O        O      0.555400000000     0.852500000000     0.189400000000     0          
O        O      0.574550000000     0.852750000000     0.106275000000     0          
O        O      0.500000000000     0.889100000000     0.125000000000     0          
O        O      0.593400000000     0.840300000000     0.024525000000     0          
O        O      0.500000000000     0.838300000000     0.000000000000     0          
T        Si     0.550800000000     0.829350000000     0.234325000000     0          
T        Si     0.554100000000     0.876700000000     0.144275000000     0          
T        Si     0.606800000000     0.829000000000     0.077075000000     0          
O        O      0.596150000000     0.786050000000     0.083225000000     0          
O        O      0.554500000000     0.713900000000     0.224400000000     0          
O        O      0.912750000000     0.912600000000     0.094300000000     0          
O        O      0.944600000000     0.852500000000     0.060600000000     0          
O        O      0.925450000000     0.852750000000     0.143725000000     0          
O        O      0.906600000000     0.840300000000     0.225475000000     0          
T        Si     0.949200000000     0.829350000000     0.015675000000     0          
T        Si     0.945900000000     0.876700000000     0.105725000000     0          
T        Si     0.893200000000     0.829000000000     0.172925000000     0          
O        O      0.823000000000     0.500000000000     0.403050000000     0          
O        O      0.846150000000     0.963950000000     0.333225000000     0          
O        O      0.764450000000     0.500000000000     0.325950000000     0          
O        O      0.804500000000     0.536100000000     0.474400000000     0          
O        O      0.662750000000     0.837400000000     0.344300000000     0          
O        O      0.694600000000     0.897500000000     0.310600000000     0          
O        O      0.675450000000     0.897250000000     0.393725000000     0          
O        O      0.750000000000     0.860900000000     0.375000000000     0          
O        O      0.656600000000     0.909700000000     0.475475000000     0          
O        O      0.750000000000     0.911700000000     0.250000000000     0          
T        Si     0.699200000000     0.920650000000     0.265675000000     0          
T        Si     0.695900000000     0.873300000000     0.355725000000     0          
T        Si     0.643200000000     0.921000000000     0.422925000000     0          
T        Si     0.820000000000     0.500000000000     0.348850000000     0          
T        Si     0.791900000000     0.500000000000     0.443850000000     0          
O        O      0.677000000000     0.500000000000     0.346950000000     0          
O        O      0.653850000000     0.963950000000     0.416775000000     0          
O        O      0.735550000000     0.500000000000     0.424050000000     0          
O        O      0.695500000000     0.536100000000     0.275600000000     0          
O        O      0.837250000000     0.837400000000     0.405700000000     0          
O        O      0.805400000000     0.897500000000     0.439400000000     0          
O        O      0.824550000000     0.897250000000     0.356275000000     0          
O        O      0.843400000000     0.909700000000     0.274525000000     0          
T        Si     0.800800000000     0.920650000000     0.484325000000     0          
T        Si     0.804100000000     0.873300000000     0.394275000000     0          
T        Si     0.856800000000     0.921000000000     0.327075000000     0          
T        Si     0.680000000000     0.500000000000     0.401150000000     0          
T        Si     0.708100000000     0.500000000000     0.306150000000     0          
O        O      0.653850000000     0.536050000000     0.416775000000     0          
O        O      0.695500000000     0.963900000000     0.275600000000     0          
O        O      0.837250000000     0.662600000000     0.405700000000     0          
O        O      0.805400000000     0.602500000000     0.439400000000     0          
O        O      0.824550000000     0.602750000000     0.356275000000     0          
O        O      0.750000000000     0.639100000000     0.375000000000     0          
O        O      0.843400000000     0.590300000000     0.274525000000     0          
O        O      0.750000000000     0.588300000000     0.250000000000     0          
T        Si     0.800800000000     0.579350000000     0.484325000000     0          
T        Si     0.804100000000     0.626700000000     0.394275000000     0          
T        Si     0.856800000000     0.579000000000     0.327075000000     0          
O        O      0.846150000000     0.536050000000     0.333225000000     0          
O        O      0.804500000000     0.963900000000     0.474400000000     0          
O        O      0.662750000000     0.662600000000     0.344300000000     0          
O        O      0.694600000000     0.602500000000     0.310600000000     0          
O        O      0.675450000000     0.602750000000     0.393725000000     0          
O        O      0.656600000000     0.590300000000     0.475475000000     0          
T        Si     0.699200000000     0.579350000000     0.265675000000     0          
T        Si     0.695900000000     0.626700000000     0.355725000000     0          
T        Si     0.643200000000     0.579000000000     0.422925000000     0          
O        O      0.573000000000     0.750000000000     0.403050000000     0          
O        O      0.596150000000     0.713950000000     0.333225000000     0          
O        O      0.514450000000     0.750000000000     0.325950000000     0          
O        O      0.554500000000     0.786100000000     0.474400000000     0          
O        O      0.912750000000     0.587400000000     0.344300000000     0          
O        O      0.944600000000     0.647500000000     0.310600000000     0          
O        O      0.925450000000     0.647250000000     0.393725000000     0          
O        O      0.500000000000     0.610900000000     0.375000000000     0          
O        O      0.906600000000     0.659700000000     0.475475000000     0          
O        O      0.500000000000     0.661700000000     0.250000000000     0          
T        Si     0.949200000000     0.670650000000     0.265675000000     0          
T        Si     0.945900000000     0.623300000000     0.355725000000     0          
T        Si     0.893200000000     0.671000000000     0.422925000000     0          
T        Si     0.570000000000     0.750000000000     0.348850000000     0          
T        Si     0.541900000000     0.750000000000     0.443850000000     0          
O        O      0.927000000000     0.750000000000     0.346950000000     0          
O        O      0.903850000000     0.713950000000     0.416775000000     0          
O        O      0.985550000000     0.750000000000     0.424050000000     0          
O        O      0.945500000000     0.786100000000     0.275600000000     0          
O        O      0.587250000000     0.587400000000     0.405700000000     0          
O        O      0.555400000000     0.647500000000     0.439400000000     0          
O        O      0.574550000000     0.647250000000     0.356275000000     0          
O        O      0.593400000000     0.659700000000     0.274525000000     0          
T        Si     0.550800000000     0.670650000000     0.484325000000     0          
T        Si     0.554100000000     0.623300000000     0.394275000000     0          
T        Si     0.606800000000     0.671000000000     0.327075000000     0          
T        Si     0.930000000000     0.750000000000     0.401150000000     0          
T        Si     0.958100000000     0.750000000000     0.306150000000     0          
O        O      0.903850000000     0.786050000000     0.416775000000     0          
O        O      0.945500000000     0.713900000000     0.275600000000     0          
O        O      0.587250000000     0.912600000000     0.405700000000     0          
O        O      0.555400000000     0.852500000000     0.439400000000     0          
O        O      0.574550000000     0.852750000000     0.356275000000     0          
O        O      0.500000000000     0.889100000000     0.375000000000     0          
O        O      0.593400000000     0.840300000000     0.274525000000     0          
O        O      0.500000000000     0.838300000000     0.250000000000     0          
T        Si     0.550800000000     0.829350000000     0.484325000000     0          
T        Si     0.554100000000     0.876700000000     0.394275000000     0          
T        Si     0.606800000000     0.829000000000     0.327075000000     0          
O        O      0.596150000000     0.786050000000     0.333225000000     0          
O        O      0.554500000000     0.713900000000     0.474400000000     0          
O        O      0.912750000000     0.912600000000     0.344300000000     0          
O        O      0.944600000000     0.852500000000     0.310600000000     0          
O        O      0.925450000000     0.852750000000     0.393725000000     0          
O        O      0.906600000000     0.840300000000     0.475475000000     0          
T        Si     0.949200000000     0.829350000000     0.265675000000     0          
T        Si     0.945900000000     0.876700000000     0.355725000000     0          
T        Si     0.893200000000     0.829000000000     0.422925000000     0          
O        O      0.823000000000     0.500000000000     0.653050000000     0          
O        O      0.846150000000     0.963950000000     0.583225000000     0          
O        O      0.764450000000     0.500000000000     0.575950000000     0          
O        O      0.804500000000     0.536100000000     0.724400000000     0          
O        O      0.662750000000     0.837400000000     0.594300000000     0          
O        O      0.694600000000     0.897500000000     0.560600000000     0          
O        O      0.675450000000     0.897250000000     0.643725000000     0          
O        O      0.750000000000     0.860900000000     0.625000000000     0          
O        O      0.656600000000     0.909700000000     0.725475000000     0          
O        O      0.750000000000     0.911700000000     0.500000000000     0          
T        Si     0.699200000000     0.920650000000     0.515675000000     0          
T        Si     0.695900000000     0.873300000000     0.605725000000     0          
T        Si     0.643200000000     0.921000000000     0.672925000000     0          
T        Si     0.820000000000     0.500000000000     0.598850000000     0          
T        Si     0.791900000000     0.500000000000     0.693850000000     0          
O        O      0.677000000000     0.500000000000     0.596950000000     0          
O        O      0.653850000000     0.963950000000     0.666775000000     0          
O        O      0.735550000000     0.500000000000     0.674050000000     0          
O        O      0.695500000000     0.536100000000     0.525600000000     0          
O        O      0.837250000000     0.837400000000     0.655700000000     0          
O        O      0.805400000000     0.897500000000     0.689400000000     0          
O        O      0.824550000000     0.897250000000     0.606275000000     0          
O        O      0.843400000000     0.909700000000     0.524525000000     0          
T        Si     0.800800000000     0.920650000000     0.734325000000     0          
T        Si     0.804100000000     0.873300000000     0.644275000000     0          
T        Si     0.856800000000     0.921000000000     0.577075000000     0          
T        Si     0.680000000000     0.500000000000     0.651150000000     0          
T        Si     0.708100000000     0.500000000000     0.556150000000     0          
O        O      0.653850000000     0.536050000000     0.666775000000     0          
O        O      0.695500000000     0.963900000000     0.525600000000     0          
O        O      0.837250000000     0.662600000000     0.655700000000     0          
O        O      0.805400000000     0.602500000000     0.689400000000     0          
O        O      0.824550000000     0.602750000000     0.606275000000     0          
O        O      0.750000000000     0.639100000000     0.625000000000     0          
O        O      0.843400000000     0.590300000000     0.524525000000     0          
O        O      0.750000000000     0.588300000000     0.500000000000     0          
T        Si     0.800800000000     0.579350000000     0.734325000000     0          
T        Si     0.804100000000     0.626700000000     0.644275000000     0          
T        Si     0.856800000000     0.579000000000     0.577075000000     0          
O        O      0.846150000000     0.536050000000     0.583225000000     0          
O        O      0.804500000000     0.963900000000     0.724400000000     0          
O        O      0.662750000000     0.662600000000     0.594300000000     0          
O        O      0.694600000000     0.602500000000     0.560600000000     0          
O        O      0.675450000000     0.602750000000     0.643725000000     0          
O        O      0.656600000000     0.590300000000     0.725475000000     0          
T        Si     0.699200000000     0.579350000000     0.515675000000     0          
T        Si     0.695900000000     0.626700000000     0.605725000000     0          
T        Si     0.643200000000     0.579000000000     0.672925000000     0          
O        O      0.573000000000     0.750000000000     0.653050000000     0          
O        O      0.596150000000     0.713950000000     0.583225000000     0          
O        O      0.514450000000     0.750000000000     0.575950000000     0          
O        O      0.554500000000     0.786100000000     0.724400000000     0          
O        O      0.912750000000     0.587400000000     0.594300000000     0          
O        O      0.944600000000     0.647500000000     0.560600000000     0          
O        O      0.925450000000     0.647250000000     0.643725000000     0          
O        O      0.500000000000     0.610900000000     0.625000000000     0          
O        O      0.906600000000     0.659700000000     0.725475000000     0          
O        O      0.500000000000     0.661700000000     0.500000000000     0          
T        Si     0.949200000000     0.670650000000     0.515675000000     0          
T        Si     0.945900000000     0.623300000000     0.605725000000     0          
T        Si     0.893200000000     0.671000000000     0.672925000000     0          
T        Si     0.570000000000     0.750000000000     0.598850000000     0          
T        Si     0.541900000000     0.750000000000     0.693850000000     0          
O        O      0.927000000000     0.750000000000     0.596950000000     0          
O        O      0.903850000000     0.713950000000     0.666775000000     0          
O        O      0.985550000000     0.750000000000     0.674050000000     0          
O        O      0.945500000000     0.786100000000     0.525600000000     0          
O        O      0.587250000000     0.587400000000     0.655700000000     0          
O        O      0.555400000000     0.647500000000     0.689400000000     0          
O        O      0.574550000000     0.647250000000     0.606275000000     0          
O        O      0.593400000000     0.659700000000     0.524525000000     0          
T        Si     0.550800000000     0.670650000000     0.734325000000     0          
T        Si     0.554100000000     0.623300000000     0.644275000000     0          
T        Si     0.606800000000     0.671000000000     0.577075000000     0          
T        Si     0.930000000000     0.750000000000     0.651150000000     0          
T        Si     0.958100000000     0.750000000000     0.556150000000     0          
O        O      0.903850000000     0.786050000000     0.666775000000     0          
O        O      0.945500000000     0.713900000000     0.525600000000     0          
O        O      0.587250000000     0.912600000000     0.655700000000     0          
O        O      0.555400000000     0.852500000000     0.689400000000     0          
O        O      0.574550000000     0.852750000000     0.606275000000     0          
O        O      0.500000000000     0.889100000000     0.625000000000     0          
O        O      0.593400000000     0.840300000000     0.524525000000     0          
O        O      0.500000000000     0.838300000000     0.500000000000     0          
T        Si     0.550800000000     0.829350000000     0.734325000000     0          
T        Si     0.554100000000     0.876700000000     0.644275000000     0          
T        Si     0.606800000000     0.829000000000     0.577075000000     0          
O        O      0.596150000000     0.786050000000     0.583225000000     0          
O        O      0.554500000000     0.713900000000     0.724400000000     0          
O        O      0.912750000000     0.912600000000     0.594300000000     0          
O        O      0.944600000000     0.852500000000     0.560600000000     0          
O        O      0.925450000000     0.852750000000     0.643725000000     0          
O        O      0.906600000000     0.840300000000     0.725475000000     0          
T        Si     0.949200000000     0.829350000000     0.515675000000     0          
T        Si     0.945900000000     0.876700000000     0.605725000000     0          
T        Si     0.893200000000     0.829000000000     0.672925000000     0          
O        O      0.823000000000     0.500000000000     0.903050000000     0          
O        O      0.846150000000     0.963950000000     0.833225000000     0          
O        O      0.764450000000     0.500000000000     0.825950000000     0          
O        O      0.804500000000     0.536100000000     0.974400000000     0          
O        O      0.662750000000     0.837400000000     0.844300000000     0          
O        O      0.694600000000     0.897500000000     0.810600000000     0          
O        O      0.675450000000     0.897250000000     0.893725000000     0          
O        O      0.750000000000     0.860900000000     0.875000000000     0          
O        O      0.656600000000     0.909700000000     0.975475000000     0          
O        O      0.750000000000     0.911700000000     0.750000000000     0          
T        Si     0.699200000000     0.920650000000     0.765675000000     0          
T        Si     0.695900000000     0.873300000000     0.855725000000     0          
T        Si     0.643200000000     0.921000000000     0.922925000000     0          
T        Si     0.820000000000     0.500000000000     0.848850000000     0          
T        Si     0.791900000000     0.500000000000     0.943850000000     0          
O        O      0.677000000000     0.500000000000     0.846950000000     0          
O        O      0.653850000000     0.963950000000     0.916775000000     0          
O        O      0.735550000000     0.500000000000     0.924050000000     0          
O        O      0.695500000000     0.536100000000     0.775600000000     0          
O        O      0.837250000000     0.837400000000     0.905700000000     0          
O        O      0.805400000000     0.897500000000     0.939400000000     0          
O        O      0.824550000000     0.897250000000     0.856275000000     0          
O        O      0.843400000000     0.909700000000     0.774525000000     0          
T        Si     0.800800000000     0.920650000000     0.984325000000     0          
T        Si     0.804100000000     0.873300000000     0.894275000000     0          
T        Si     0.856800000000     0.921000000000     0.827075000000     0          
T        Si     0.680000000000     0.500000000000     0.901150000000     0          
T        Si     0.708100000000     0.500000000000     0.806150000000     0          
O        O      0.653850000000     0.536050000000     0.916775000000     0          
O        O      0.695500000000     0.963900000000     0.775600000000     0          
O        O      0.837250000000     0.662600000000     0.905700000000     0          
O        O      0.805400000000     0.602500000000     0.939400000000     0          
O        O      0.824550000000     0.602750000000     0.856275000000     0          
O        O      0.750000000000     0.639100000000     0.875000000000     0          
O        O      0.843400000000     0.590300000000     0.774525000000     0          
O        O      0.750000000000     0.588300000000     0.750000000000     0          
T        Si     0.800800000000     0.579350000000     0.984325000000     0          
T        Si     0.804100000000     0.626700000000     0.894275000000     0          
T        Si     0.856800000000     0.579000000000     0.827075000000     0          
O        O      0.846150000000     0.536050000000     0.833225000000     0          
O        O      0.804500000000     0.963900000000     0.974400000000     0          
O        O      0.662750000000     0.662600000000     0.844300000000     0          
O        O      0.694600000000     0.602500000000     0.810600000000     0          
O        O      0.675450000000     0.602750000000     0.893725000000     0          
O        O      0.656600000000     0.590300000000     0.975475000000     0          
T        Si     0.699200000000     0.579350000000     0.765675000000     0          
T        Si     0.695900000000     0.626700000000     0.855725000000     0          
T        Si     0.643200000000     0.579000000000     0.922925000000     0          
O        O      0.573000000000     0.750000000000     0.903050000000     0          
O        O      0.596150000000     0.713950000000     0.833225000000     0          
O        O      0.514450000000     0.750000000000     0.825950000000     0          
O        O      0.554500000000     0.786100000000     0.974400000000     0          
O        O      0.912750000000     0.587400000000     0.844300000000     0          
O        O      0.944600000000     0.647500000000     0.810600000000     0          
O        O      0.925450000000     0.647250000000     0.893725000000     0          
O        O      0.500000000000     0.610900000000     0.875000000000     0          
O        O      0.906600000000     0.659700000000     0.975475000000     0          
O        O      0.500000000000     0.661700000000     0.750000000000     0          
T        Si     0.949200000000     0.670650000000     0.765675000000     0          
T        Si     0.945900000000     0.623300000000     0.855725000000     0          
T        Si     0.893200000000     0.671000000000     0.922925000000     0          
T        Si     0.570000000000     0.750000000000     0.848850000000     0          
T        Si     0.541900000000     0.750000000000     0.943850000000     0          
O        O      0.927000000000     0.750000000000     0.846950000000     0          
O        O      0.903850000000     0.713950000000     0.916775000000     0          
O        O      0.985550000000     0.750000000000     0.924050000000     0          
O        O      0.945500000000     0.786100000000     0.775600000000     0          
O        O      0.587250000000     0.587400000000     0.905700000000     0          
O        O      0.555400000000     0.647500000000     0.939400000000     0          
O        O      0.574550000000     0.647250000000     0.856275000000     0          
O        O      0.593400000000     0.659700000000     0.774525000000     0          
T        Si     0.550800000000     0.670650000000     0.984325000000     0          
T        Si     0.554100000000     0.623300000000     0.894275000000     0          
T        Si     0.606800000000     0.671000000000     0.827075000000     0          
T        Si     0.930000000000     0.750000000000     0.901150000000     0          
T        Si     0.958100000000     0.750000000000     0.806150000000     0          
O        O      0.903850000000     0.786050000000     0.916775000000     0          
O        O      0.945500000000     0.713900000000     0.775600000000     0          
O        O      0.587250000000     0.912600000000     0.905700000000     0          
O        O      0.555400000000     0.852500000000     0.939400000000     0          
O        O      0.574550000000     0.852750000000     0.856275000000     0          
O        O      0.500000000000     0.889100000000     0.875000000000     0          
O        O      0.593400000000     0.840300000000     0.774525000000     0          
O        O      0.500000000000     0.838300000000     0.750000000000     0          
T        Si     0.550800000000     0.829350000000     0.984325000000     0          
T        Si     0.554100000000     0.876700000000     0.894275000000     0          
T        Si     0.606800000000     0.829000000000     0.827075000000     0          
O        O      0.596150000000     0.786050000000     0.833225000000     0          
O        O      0.554500000000     0.713900000000     0.974400000000     0          
O        O      0.912750000000     0.912600000000     0.844300000000     0          
O        O      0.944600000000     0.852500000000     0.810600000000     0          
O        O      0.925450000000     0.852750000000     0.893725000000     0          
O        O      0.906600000000     0.840300000000     0.975475000000     0          
T        Si     0.949200000000     0.829350000000     0.765675000000     0          
T        Si     0.945900000000     0.876700000000     0.855725000000     0          
T        Si     0.893200000000     0.829000000000     0.922925000000     0          


