data_zeolite

_audit_creation_method RASPA-1.0
_audit_creation_date 2021-1-30
_audit_author_name ''

_cell_length_a    39.3693
_cell_length_b    26.7468
_cell_length_c    42.524
_cell_angle_alpha 90
_cell_angle_beta  123.642
_cell_angle_gamma 90
_cell_volume      37278.2

_symmetry_cell_setting          monoclinic
_symmetry_space_group_name_Hall 'P 1'
_symmetry_space_group_name_H-M  'P 1'
_symmetry_Int_Tables_number     1

_symmetry_equiv_pos_as_xyz 'x,y,z'

loop_
_atom_site_label
_atom_site_type_symbol
_atom_site_fract_x
_atom_site_fract_y
_atom_site_fract_z
_atom_site_charge
T        Si     0.148673333333     0.139000000000     0.024120000000     0          
T        Si     0.099086666667     0.058580000000     0.036595000000     0          
T        Si     0.035986666667     0.057485000000     0.102370000000     0          
T        Si     0.120280000000     0.056710000000     0.117810000000     0          
T        Si     0.030160000000     0.123140000000     0.158900000000     0          
T        Si     0.105653333333     0.192465000000     0.198740000000     0          
T        Si     0.025163333333     0.057535000000     0.215625000000     0          
O        O      0.184500000000     0.165605000000     0.062240000000     0          
O        O      0.166666666667     0.120940000000     0.000000000000     0          
O        O      0.112243333333     0.178295000000     0.499705000000     0          
O        O      0.132466666667     0.090950000000     0.034845000000     0          
O        O      0.101630000000     0.072585000000     0.074675000000     0          
O        O      0.108383333333     0.000000000000     0.036595000000     0          
O        O      0.085053333333     0.059955000000     0.126085000000     0          
O        O      0.021470000000     0.000000000000     0.095595000000     0          
O        O      0.019800000000     0.085465000000     0.125165000000     0          
O        O      0.157353333333     0.093170000000     0.146240000000     0          
O        O      0.136616666667     0.000000000000     0.124210000000     0          
O        O      0.042060000000     0.091515000000     0.195885000000     0          
O        O      0.067800000000     0.158400000000     0.168235000000     0          
O        O      0.096513333333     0.250000000000     0.185440000000     0          
O        O      0.111570000000     0.187055000000     0.239200000000     0          
O        O      0.146596666667     0.174645000000     0.202060000000     0          
O        O      0.023783333333     0.000000000000     0.203845000000     0          
T        Si     0.184660000000     0.139000000000     0.475880000000     0          
T        Si     0.234246666667     0.058580000000     0.463405000000     0          
T        Si     0.297346666667     0.057485000000     0.397630000000     0          
T        Si     0.213053333333     0.056710000000     0.382190000000     0          
T        Si     0.303173333333     0.123140000000     0.341100000000     0          
T        Si     0.227680000000     0.192465000000     0.301260000000     0          
T        Si     0.308170000000     0.057535000000     0.284375000000     0          
O        O      0.148833333333     0.165605000000     0.437760000000     0          
O        O      0.221090000000     0.178295000000     0.000295000000     0          
O        O      0.200866666667     0.090950000000     0.465155000000     0          
O        O      0.231703333333     0.072585000000     0.425325000000     0          
O        O      0.224950000000     0.000000000000     0.463405000000     0          
O        O      0.248280000000     0.059955000000     0.373915000000     0          
O        O      0.311863333333     0.000000000000     0.404405000000     0          
O        O      0.313533333333     0.085465000000     0.374835000000     0          
O        O      0.175980000000     0.093170000000     0.353760000000     0          
O        O      0.196716666667     0.000000000000     0.375790000000     0          
O        O      0.291273333333     0.091515000000     0.304115000000     0          
O        O      0.265533333333     0.158400000000     0.331765000000     0          
O        O      0.236820000000     0.250000000000     0.314560000000     0          
O        O      0.221763333333     0.187055000000     0.260800000000     0          
O        O      0.186736666667     0.174645000000     0.297940000000     0          
O        O      0.309550000000     0.000000000000     0.296155000000     0          
T        Si     0.184660000000     0.361000000000     0.475880000000     0          
T        Si     0.234246666667     0.441420000000     0.463405000000     0          
T        Si     0.297346666667     0.442515000000     0.397630000000     0          
T        Si     0.213053333333     0.443290000000     0.382190000000     0          
T        Si     0.303173333333     0.376860000000     0.341100000000     0          
T        Si     0.227680000000     0.307535000000     0.301260000000     0          
T        Si     0.308170000000     0.442465000000     0.284375000000     0          
O        O      0.148833333333     0.334395000000     0.437760000000     0          
O        O      0.166666666667     0.379060000000     0.000000000000     0          
O        O      0.221090000000     0.321705000000     0.000295000000     0          
O        O      0.200866666667     0.409050000000     0.465155000000     0          
O        O      0.231703333333     0.427415000000     0.425325000000     0          
O        O      0.248280000000     0.440045000000     0.373915000000     0          
O        O      0.313533333333     0.414535000000     0.374835000000     0          
O        O      0.175980000000     0.406830000000     0.353760000000     0          
O        O      0.291273333333     0.408485000000     0.304115000000     0          
O        O      0.265533333333     0.341600000000     0.331765000000     0          
O        O      0.221763333333     0.312945000000     0.260800000000     0          
O        O      0.186736666667     0.325355000000     0.297940000000     0          
T        Si     0.148673333333     0.361000000000     0.024120000000     0          
T        Si     0.099086666667     0.441420000000     0.036595000000     0          
T        Si     0.035986666667     0.442515000000     0.102370000000     0          
T        Si     0.120280000000     0.443290000000     0.117810000000     0          
T        Si     0.030160000000     0.376860000000     0.158900000000     0          
T        Si     0.105653333333     0.307535000000     0.198740000000     0          
T        Si     0.025163333333     0.442465000000     0.215625000000     0          
O        O      0.184500000000     0.334395000000     0.062240000000     0          
O        O      0.112243333333     0.321705000000     0.499705000000     0          
O        O      0.132466666667     0.409050000000     0.034845000000     0          
O        O      0.101630000000     0.427415000000     0.074675000000     0          
O        O      0.085053333333     0.440045000000     0.126085000000     0          
O        O      0.019800000000     0.414535000000     0.125165000000     0          
O        O      0.157353333333     0.406830000000     0.146240000000     0          
O        O      0.042060000000     0.408485000000     0.195885000000     0          
O        O      0.067800000000     0.341600000000     0.168235000000     0          
O        O      0.111570000000     0.312945000000     0.239200000000     0          
O        O      0.146596666667     0.325355000000     0.202060000000     0          
T        Si     0.315340000000     0.389000000000     0.024120000000     0          
T        Si     0.265753333333     0.308580000000     0.036595000000     0          
T        Si     0.202653333333     0.307485000000     0.102370000000     0          
T        Si     0.286946666667     0.306710000000     0.117810000000     0          
T        Si     0.196826666667     0.373140000000     0.158900000000     0          
T        Si     0.272320000000     0.442465000000     0.198740000000     0          
T        Si     0.191830000000     0.307535000000     0.215625000000     0          
O        O      0.017833333333     0.415605000000     0.062240000000     0          
O        O      0.000000000000     0.370940000000     0.000000000000     0          
O        O      0.278910000000     0.428295000000     0.499705000000     0          
O        O      0.299133333333     0.340950000000     0.034845000000     0          
O        O      0.268296666667     0.322585000000     0.074675000000     0          
O        O      0.275050000000     0.250000000000     0.036595000000     0          
O        O      0.251720000000     0.309955000000     0.126085000000     0          
O        O      0.188136666667     0.250000000000     0.095595000000     0          
O        O      0.186466666667     0.335465000000     0.125165000000     0          
O        O      0.324020000000     0.343170000000     0.146240000000     0          
O        O      0.303283333333     0.250000000000     0.124210000000     0          
O        O      0.208726666667     0.341515000000     0.195885000000     0          
O        O      0.234466666667     0.408400000000     0.168235000000     0          
O        O      0.263180000000     0.000000000000     0.185440000000     0          
O        O      0.278236666667     0.437055000000     0.239200000000     0          
O        O      0.313263333333     0.424645000000     0.202060000000     0          
O        O      0.190450000000     0.250000000000     0.203845000000     0          
T        Si     0.017993333333     0.389000000000     0.475880000000     0          
T        Si     0.067580000000     0.308580000000     0.463405000000     0          
T        Si     0.130680000000     0.307485000000     0.397630000000     0          
T        Si     0.046386666667     0.306710000000     0.382190000000     0          
T        Si     0.136506666667     0.373140000000     0.341100000000     0          
T        Si     0.061013333333     0.442465000000     0.301260000000     0          
T        Si     0.141503333333     0.307535000000     0.284375000000     0          
O        O      0.315500000000     0.415605000000     0.437760000000     0          
O        O      0.054423333333     0.428295000000     0.000295000000     0          
O        O      0.034200000000     0.340950000000     0.465155000000     0          
O        O      0.065036666667     0.322585000000     0.425325000000     0          
O        O      0.058283333333     0.250000000000     0.463405000000     0          
O        O      0.081613333333     0.309955000000     0.373915000000     0          
O        O      0.145196666667     0.250000000000     0.404405000000     0          
O        O      0.146866666667     0.335465000000     0.374835000000     0          
O        O      0.009313333333     0.343170000000     0.353760000000     0          
O        O      0.030050000000     0.250000000000     0.375790000000     0          
O        O      0.124606666667     0.341515000000     0.304115000000     0          
O        O      0.098866666667     0.408400000000     0.331765000000     0          
O        O      0.070153333333     0.000000000000     0.314560000000     0          
O        O      0.055096666667     0.437055000000     0.260800000000     0          
O        O      0.020070000000     0.424645000000     0.297940000000     0          
O        O      0.142883333333     0.250000000000     0.296155000000     0          
T        Si     0.017993333333     0.111000000000     0.475880000000     0          
T        Si     0.067580000000     0.191420000000     0.463405000000     0          
T        Si     0.130680000000     0.192515000000     0.397630000000     0          
T        Si     0.046386666667     0.193290000000     0.382190000000     0          
T        Si     0.136506666667     0.126860000000     0.341100000000     0          
T        Si     0.061013333333     0.057535000000     0.301260000000     0          
T        Si     0.141503333333     0.192465000000     0.284375000000     0          
O        O      0.315500000000     0.084395000000     0.437760000000     0          
O        O      0.000000000000     0.129060000000     0.000000000000     0          
O        O      0.054423333333     0.071705000000     0.000295000000     0          
O        O      0.034200000000     0.159050000000     0.465155000000     0          
O        O      0.065036666667     0.177415000000     0.425325000000     0          
O        O      0.081613333333     0.190045000000     0.373915000000     0          
O        O      0.146866666667     0.164535000000     0.374835000000     0          
O        O      0.009313333333     0.156830000000     0.353760000000     0          
O        O      0.124606666667     0.158485000000     0.304115000000     0          
O        O      0.098866666667     0.091600000000     0.331765000000     0          
O        O      0.055096666667     0.062945000000     0.260800000000     0          
O        O      0.020070000000     0.075355000000     0.297940000000     0          
T        Si     0.315340000000     0.111000000000     0.024120000000     0          
T        Si     0.265753333333     0.191420000000     0.036595000000     0          
T        Si     0.202653333333     0.192515000000     0.102370000000     0          
T        Si     0.286946666667     0.193290000000     0.117810000000     0          
T        Si     0.196826666667     0.126860000000     0.158900000000     0          
T        Si     0.272320000000     0.057535000000     0.198740000000     0          
T        Si     0.191830000000     0.192465000000     0.215625000000     0          
O        O      0.017833333333     0.084395000000     0.062240000000     0          
O        O      0.278910000000     0.071705000000     0.499705000000     0          
O        O      0.299133333333     0.159050000000     0.034845000000     0          
O        O      0.268296666667     0.177415000000     0.074675000000     0          
O        O      0.251720000000     0.190045000000     0.126085000000     0          
O        O      0.186466666667     0.164535000000     0.125165000000     0          
O        O      0.324020000000     0.156830000000     0.146240000000     0          
O        O      0.208726666667     0.158485000000     0.195885000000     0          
O        O      0.234466666667     0.091600000000     0.168235000000     0          
O        O      0.278236666667     0.062945000000     0.239200000000     0          
O        O      0.313263333333     0.075355000000     0.202060000000     0          
T        Si     0.148673333333     0.139000000000     0.524120000000     0          
T        Si     0.099086666667     0.058580000000     0.536595000000     0          
T        Si     0.035986666667     0.057485000000     0.602370000000     0          
T        Si     0.120280000000     0.056710000000     0.617810000000     0          
T        Si     0.030160000000     0.123140000000     0.658900000000     0          
T        Si     0.105653333333     0.192465000000     0.698740000000     0          
T        Si     0.025163333333     0.057535000000     0.715625000000     0          
O        O      0.184500000000     0.165605000000     0.562240000000     0          
O        O      0.166666666667     0.120940000000     0.500000000000     0          
O        O      0.112243333333     0.178295000000     0.999705000000     0          
O        O      0.132466666667     0.090950000000     0.534845000000     0          
O        O      0.101630000000     0.072585000000     0.574675000000     0          
O        O      0.108383333333     0.000000000000     0.536595000000     0          
O        O      0.085053333333     0.059955000000     0.626085000000     0          
O        O      0.021470000000     0.000000000000     0.595595000000     0          
O        O      0.019800000000     0.085465000000     0.625165000000     0          
O        O      0.157353333333     0.093170000000     0.646240000000     0          
O        O      0.136616666667     0.000000000000     0.624210000000     0          
O        O      0.042060000000     0.091515000000     0.695885000000     0          
O        O      0.067800000000     0.158400000000     0.668235000000     0          
O        O      0.096513333333     0.250000000000     0.685440000000     0          
O        O      0.111570000000     0.187055000000     0.739200000000     0          
O        O      0.146596666667     0.174645000000     0.702060000000     0          
O        O      0.023783333333     0.000000000000     0.703845000000     0          
T        Si     0.184660000000     0.139000000000     0.975880000000     0          
T        Si     0.234246666667     0.058580000000     0.963405000000     0          
T        Si     0.297346666667     0.057485000000     0.897630000000     0          
T        Si     0.213053333333     0.056710000000     0.882190000000     0          
T        Si     0.303173333333     0.123140000000     0.841100000000     0          
T        Si     0.227680000000     0.192465000000     0.801260000000     0          
T        Si     0.308170000000     0.057535000000     0.784375000000     0          
O        O      0.148833333333     0.165605000000     0.937760000000     0          
O        O      0.221090000000     0.178295000000     0.500295000000     0          
O        O      0.200866666667     0.090950000000     0.965155000000     0          
O        O      0.231703333333     0.072585000000     0.925325000000     0          
O        O      0.224950000000     0.000000000000     0.963405000000     0          
O        O      0.248280000000     0.059955000000     0.873915000000     0          
O        O      0.311863333333     0.000000000000     0.904405000000     0          
O        O      0.313533333333     0.085465000000     0.874835000000     0          
O        O      0.175980000000     0.093170000000     0.853760000000     0          
O        O      0.196716666667     0.000000000000     0.875790000000     0          
O        O      0.291273333333     0.091515000000     0.804115000000     0          
O        O      0.265533333333     0.158400000000     0.831765000000     0          
O        O      0.236820000000     0.250000000000     0.814560000000     0          
O        O      0.221763333333     0.187055000000     0.760800000000     0          
O        O      0.186736666667     0.174645000000     0.797940000000     0          
O        O      0.309550000000     0.000000000000     0.796155000000     0          
T        Si     0.184660000000     0.361000000000     0.975880000000     0          
T        Si     0.234246666667     0.441420000000     0.963405000000     0          
T        Si     0.297346666667     0.442515000000     0.897630000000     0          
T        Si     0.213053333333     0.443290000000     0.882190000000     0          
T        Si     0.303173333333     0.376860000000     0.841100000000     0          
T        Si     0.227680000000     0.307535000000     0.801260000000     0          
T        Si     0.308170000000     0.442465000000     0.784375000000     0          
O        O      0.148833333333     0.334395000000     0.937760000000     0          
O        O      0.166666666667     0.379060000000     0.500000000000     0          
O        O      0.221090000000     0.321705000000     0.500295000000     0          
O        O      0.200866666667     0.409050000000     0.965155000000     0          
O        O      0.231703333333     0.427415000000     0.925325000000     0          
O        O      0.248280000000     0.440045000000     0.873915000000     0          
O        O      0.313533333333     0.414535000000     0.874835000000     0          
O        O      0.175980000000     0.406830000000     0.853760000000     0          
O        O      0.291273333333     0.408485000000     0.804115000000     0          
O        O      0.265533333333     0.341600000000     0.831765000000     0          
O        O      0.221763333333     0.312945000000     0.760800000000     0          
O        O      0.186736666667     0.325355000000     0.797940000000     0          
T        Si     0.148673333333     0.361000000000     0.524120000000     0          
T        Si     0.099086666667     0.441420000000     0.536595000000     0          
T        Si     0.035986666667     0.442515000000     0.602370000000     0          
T        Si     0.120280000000     0.443290000000     0.617810000000     0          
T        Si     0.030160000000     0.376860000000     0.658900000000     0          
T        Si     0.105653333333     0.307535000000     0.698740000000     0          
T        Si     0.025163333333     0.442465000000     0.715625000000     0          
O        O      0.184500000000     0.334395000000     0.562240000000     0          
O        O      0.112243333333     0.321705000000     0.999705000000     0          
O        O      0.132466666667     0.409050000000     0.534845000000     0          
O        O      0.101630000000     0.427415000000     0.574675000000     0          
O        O      0.085053333333     0.440045000000     0.626085000000     0          
O        O      0.019800000000     0.414535000000     0.625165000000     0          
O        O      0.157353333333     0.406830000000     0.646240000000     0          
O        O      0.042060000000     0.408485000000     0.695885000000     0          
O        O      0.067800000000     0.341600000000     0.668235000000     0          
O        O      0.111570000000     0.312945000000     0.739200000000     0          
O        O      0.146596666667     0.325355000000     0.702060000000     0          
T        Si     0.315340000000     0.389000000000     0.524120000000     0          
T        Si     0.265753333333     0.308580000000     0.536595000000     0          
T        Si     0.202653333333     0.307485000000     0.602370000000     0          
T        Si     0.286946666667     0.306710000000     0.617810000000     0          
T        Si     0.196826666667     0.373140000000     0.658900000000     0          
T        Si     0.272320000000     0.442465000000     0.698740000000     0          
T        Si     0.191830000000     0.307535000000     0.715625000000     0          
O        O      0.017833333333     0.415605000000     0.562240000000     0          
O        O      0.000000000000     0.370940000000     0.500000000000     0          
O        O      0.278910000000     0.428295000000     0.999705000000     0          
O        O      0.299133333333     0.340950000000     0.534845000000     0          
O        O      0.268296666667     0.322585000000     0.574675000000     0          
O        O      0.275050000000     0.250000000000     0.536595000000     0          
O        O      0.251720000000     0.309955000000     0.626085000000     0          
O        O      0.188136666667     0.250000000000     0.595595000000     0          
O        O      0.186466666667     0.335465000000     0.625165000000     0          
O        O      0.324020000000     0.343170000000     0.646240000000     0          
O        O      0.303283333333     0.250000000000     0.624210000000     0          
O        O      0.208726666667     0.341515000000     0.695885000000     0          
O        O      0.234466666667     0.408400000000     0.668235000000     0          
O        O      0.263180000000     0.000000000000     0.685440000000     0          
O        O      0.278236666667     0.437055000000     0.739200000000     0          
O        O      0.313263333333     0.424645000000     0.702060000000     0          
O        O      0.190450000000     0.250000000000     0.703845000000     0          
T        Si     0.017993333333     0.389000000000     0.975880000000     0          
T        Si     0.067580000000     0.308580000000     0.963405000000     0          
T        Si     0.130680000000     0.307485000000     0.897630000000     0          
T        Si     0.046386666667     0.306710000000     0.882190000000     0          
T        Si     0.136506666667     0.373140000000     0.841100000000     0          
T        Si     0.061013333333     0.442465000000     0.801260000000     0          
T        Si     0.141503333333     0.307535000000     0.784375000000     0          
O        O      0.315500000000     0.415605000000     0.937760000000     0          
O        O      0.054423333333     0.428295000000     0.500295000000     0          
O        O      0.034200000000     0.340950000000     0.965155000000     0          
O        O      0.065036666667     0.322585000000     0.925325000000     0          
O        O      0.058283333333     0.250000000000     0.963405000000     0          
O        O      0.081613333333     0.309955000000     0.873915000000     0          
O        O      0.145196666667     0.250000000000     0.904405000000     0          
O        O      0.146866666667     0.335465000000     0.874835000000     0          
O        O      0.009313333333     0.343170000000     0.853760000000     0          
O        O      0.030050000000     0.250000000000     0.875790000000     0          
O        O      0.124606666667     0.341515000000     0.804115000000     0          
O        O      0.098866666667     0.408400000000     0.831765000000     0          
O        O      0.070153333333     0.000000000000     0.814560000000     0          
O        O      0.055096666667     0.437055000000     0.760800000000     0          
O        O      0.020070000000     0.424645000000     0.797940000000     0          
O        O      0.142883333333     0.250000000000     0.796155000000     0          
T        Si     0.017993333333     0.111000000000     0.975880000000     0          
T        Si     0.067580000000     0.191420000000     0.963405000000     0          
T        Si     0.130680000000     0.192515000000     0.897630000000     0          
T        Si     0.046386666667     0.193290000000     0.882190000000     0          
T        Si     0.136506666667     0.126860000000     0.841100000000     0          
T        Si     0.061013333333     0.057535000000     0.801260000000     0          
T        Si     0.141503333333     0.192465000000     0.784375000000     0          
O        O      0.315500000000     0.084395000000     0.937760000000     0          
O        O      0.000000000000     0.129060000000     0.500000000000     0          
O        O      0.054423333333     0.071705000000     0.500295000000     0          
O        O      0.034200000000     0.159050000000     0.965155000000     0          
O        O      0.065036666667     0.177415000000     0.925325000000     0          
O        O      0.081613333333     0.190045000000     0.873915000000     0          
O        O      0.146866666667     0.164535000000     0.874835000000     0          
O        O      0.009313333333     0.156830000000     0.853760000000     0          
O        O      0.124606666667     0.158485000000     0.804115000000     0          
O        O      0.098866666667     0.091600000000     0.831765000000     0          
O        O      0.055096666667     0.062945000000     0.760800000000     0          
O        O      0.020070000000     0.075355000000     0.797940000000     0          
T        Si     0.315340000000     0.111000000000     0.524120000000     0          
T        Si     0.265753333333     0.191420000000     0.536595000000     0          
T        Si     0.202653333333     0.192515000000     0.602370000000     0          
T        Si     0.286946666667     0.193290000000     0.617810000000     0          
T        Si     0.196826666667     0.126860000000     0.658900000000     0          
T        Si     0.272320000000     0.057535000000     0.698740000000     0          
T        Si     0.191830000000     0.192465000000     0.715625000000     0          
O        O      0.017833333333     0.084395000000     0.562240000000     0          
O        O      0.278910000000     0.071705000000     0.999705000000     0          
O        O      0.299133333333     0.159050000000     0.534845000000     0          
O        O      0.268296666667     0.177415000000     0.574675000000     0          
O        O      0.251720000000     0.190045000000     0.626085000000     0          
O        O      0.186466666667     0.164535000000     0.625165000000     0          
O        O      0.324020000000     0.156830000000     0.646240000000     0          
O        O      0.208726666667     0.158485000000     0.695885000000     0          
O        O      0.234466666667     0.091600000000     0.668235000000     0          
O        O      0.278236666667     0.062945000000     0.739200000000     0          
O        O      0.313263333333     0.075355000000     0.702060000000     0          
T        Si     0.148673333333     0.639000000000     0.024120000000     0          
T        Si     0.099086666667     0.558580000000     0.036595000000     0          
T        Si     0.035986666667     0.557485000000     0.102370000000     0          
T        Si     0.120280000000     0.556710000000     0.117810000000     0          
T        Si     0.030160000000     0.623140000000     0.158900000000     0          
T        Si     0.105653333333     0.692465000000     0.198740000000     0          
T        Si     0.025163333333     0.557535000000     0.215625000000     0          
O        O      0.184500000000     0.665605000000     0.062240000000     0          
O        O      0.166666666667     0.620940000000     0.000000000000     0          
O        O      0.112243333333     0.678295000000     0.499705000000     0          
O        O      0.132466666667     0.590950000000     0.034845000000     0          
O        O      0.101630000000     0.572585000000     0.074675000000     0          
O        O      0.108383333333     0.500000000000     0.036595000000     0          
O        O      0.085053333333     0.559955000000     0.126085000000     0          
O        O      0.021470000000     0.500000000000     0.095595000000     0          
O        O      0.019800000000     0.585465000000     0.125165000000     0          
O        O      0.157353333333     0.593170000000     0.146240000000     0          
O        O      0.136616666667     0.500000000000     0.124210000000     0          
O        O      0.042060000000     0.591515000000     0.195885000000     0          
O        O      0.067800000000     0.658400000000     0.168235000000     0          
O        O      0.096513333333     0.750000000000     0.185440000000     0          
O        O      0.111570000000     0.687055000000     0.239200000000     0          
O        O      0.146596666667     0.674645000000     0.202060000000     0          
O        O      0.023783333333     0.500000000000     0.203845000000     0          
T        Si     0.184660000000     0.639000000000     0.475880000000     0          
T        Si     0.234246666667     0.558580000000     0.463405000000     0          
T        Si     0.297346666667     0.557485000000     0.397630000000     0          
T        Si     0.213053333333     0.556710000000     0.382190000000     0          
T        Si     0.303173333333     0.623140000000     0.341100000000     0          
T        Si     0.227680000000     0.692465000000     0.301260000000     0          
T        Si     0.308170000000     0.557535000000     0.284375000000     0          
O        O      0.148833333333     0.665605000000     0.437760000000     0          
O        O      0.221090000000     0.678295000000     0.000295000000     0          
O        O      0.200866666667     0.590950000000     0.465155000000     0          
O        O      0.231703333333     0.572585000000     0.425325000000     0          
O        O      0.224950000000     0.500000000000     0.463405000000     0          
O        O      0.248280000000     0.559955000000     0.373915000000     0          
O        O      0.311863333333     0.500000000000     0.404405000000     0          
O        O      0.313533333333     0.585465000000     0.374835000000     0          
O        O      0.175980000000     0.593170000000     0.353760000000     0          
O        O      0.196716666667     0.500000000000     0.375790000000     0          
O        O      0.291273333333     0.591515000000     0.304115000000     0          
O        O      0.265533333333     0.658400000000     0.331765000000     0          
O        O      0.236820000000     0.750000000000     0.314560000000     0          
O        O      0.221763333333     0.687055000000     0.260800000000     0          
O        O      0.186736666667     0.674645000000     0.297940000000     0          
O        O      0.309550000000     0.500000000000     0.296155000000     0          
T        Si     0.184660000000     0.861000000000     0.475880000000     0          
T        Si     0.234246666667     0.941420000000     0.463405000000     0          
T        Si     0.297346666667     0.942515000000     0.397630000000     0          
T        Si     0.213053333333     0.943290000000     0.382190000000     0          
T        Si     0.303173333333     0.876860000000     0.341100000000     0          
T        Si     0.227680000000     0.807535000000     0.301260000000     0          
T        Si     0.308170000000     0.942465000000     0.284375000000     0          
O        O      0.148833333333     0.834395000000     0.437760000000     0          
O        O      0.166666666667     0.879060000000     0.000000000000     0          
O        O      0.221090000000     0.821705000000     0.000295000000     0          
O        O      0.200866666667     0.909050000000     0.465155000000     0          
O        O      0.231703333333     0.927415000000     0.425325000000     0          
O        O      0.248280000000     0.940045000000     0.373915000000     0          
O        O      0.313533333333     0.914535000000     0.374835000000     0          
O        O      0.175980000000     0.906830000000     0.353760000000     0          
O        O      0.291273333333     0.908485000000     0.304115000000     0          
O        O      0.265533333333     0.841600000000     0.331765000000     0          
O        O      0.221763333333     0.812945000000     0.260800000000     0          
O        O      0.186736666667     0.825355000000     0.297940000000     0          
T        Si     0.148673333333     0.861000000000     0.024120000000     0          
T        Si     0.099086666667     0.941420000000     0.036595000000     0          
T        Si     0.035986666667     0.942515000000     0.102370000000     0          
T        Si     0.120280000000     0.943290000000     0.117810000000     0          
T        Si     0.030160000000     0.876860000000     0.158900000000     0          
T        Si     0.105653333333     0.807535000000     0.198740000000     0          
T        Si     0.025163333333     0.942465000000     0.215625000000     0          
O        O      0.184500000000     0.834395000000     0.062240000000     0          
O        O      0.112243333333     0.821705000000     0.499705000000     0          
O        O      0.132466666667     0.909050000000     0.034845000000     0          
O        O      0.101630000000     0.927415000000     0.074675000000     0          
O        O      0.085053333333     0.940045000000     0.126085000000     0          
O        O      0.019800000000     0.914535000000     0.125165000000     0          
O        O      0.157353333333     0.906830000000     0.146240000000     0          
O        O      0.042060000000     0.908485000000     0.195885000000     0          
O        O      0.067800000000     0.841600000000     0.168235000000     0          
O        O      0.111570000000     0.812945000000     0.239200000000     0          
O        O      0.146596666667     0.825355000000     0.202060000000     0          
T        Si     0.315340000000     0.889000000000     0.024120000000     0          
T        Si     0.265753333333     0.808580000000     0.036595000000     0          
T        Si     0.202653333333     0.807485000000     0.102370000000     0          
T        Si     0.286946666667     0.806710000000     0.117810000000     0          
T        Si     0.196826666667     0.873140000000     0.158900000000     0          
T        Si     0.272320000000     0.942465000000     0.198740000000     0          
T        Si     0.191830000000     0.807535000000     0.215625000000     0          
O        O      0.017833333333     0.915605000000     0.062240000000     0          
O        O      0.000000000000     0.870940000000     0.000000000000     0          
O        O      0.278910000000     0.928295000000     0.499705000000     0          
O        O      0.299133333333     0.840950000000     0.034845000000     0          
O        O      0.268296666667     0.822585000000     0.074675000000     0          
O        O      0.275050000000     0.750000000000     0.036595000000     0          
O        O      0.251720000000     0.809955000000     0.126085000000     0          
O        O      0.188136666667     0.750000000000     0.095595000000     0          
O        O      0.186466666667     0.835465000000     0.125165000000     0          
O        O      0.324020000000     0.843170000000     0.146240000000     0          
O        O      0.303283333333     0.750000000000     0.124210000000     0          
O        O      0.208726666667     0.841515000000     0.195885000000     0          
O        O      0.234466666667     0.908400000000     0.168235000000     0          
O        O      0.263180000000     0.500000000000     0.185440000000     0          
O        O      0.278236666667     0.937055000000     0.239200000000     0          
O        O      0.313263333333     0.924645000000     0.202060000000     0          
O        O      0.190450000000     0.750000000000     0.203845000000     0          
T        Si     0.017993333333     0.889000000000     0.475880000000     0          
T        Si     0.067580000000     0.808580000000     0.463405000000     0          
T        Si     0.130680000000     0.807485000000     0.397630000000     0          
T        Si     0.046386666667     0.806710000000     0.382190000000     0          
T        Si     0.136506666667     0.873140000000     0.341100000000     0          
T        Si     0.061013333333     0.942465000000     0.301260000000     0          
T        Si     0.141503333333     0.807535000000     0.284375000000     0          
O        O      0.315500000000     0.915605000000     0.437760000000     0          
O        O      0.054423333333     0.928295000000     0.000295000000     0          
O        O      0.034200000000     0.840950000000     0.465155000000     0          
O        O      0.065036666667     0.822585000000     0.425325000000     0          
O        O      0.058283333333     0.750000000000     0.463405000000     0          
O        O      0.081613333333     0.809955000000     0.373915000000     0          
O        O      0.145196666667     0.750000000000     0.404405000000     0          
O        O      0.146866666667     0.835465000000     0.374835000000     0          
O        O      0.009313333333     0.843170000000     0.353760000000     0          
O        O      0.030050000000     0.750000000000     0.375790000000     0          
O        O      0.124606666667     0.841515000000     0.304115000000     0          
O        O      0.098866666667     0.908400000000     0.331765000000     0          
O        O      0.070153333333     0.500000000000     0.314560000000     0          
O        O      0.055096666667     0.937055000000     0.260800000000     0          
O        O      0.020070000000     0.924645000000     0.297940000000     0          
O        O      0.142883333333     0.750000000000     0.296155000000     0          
T        Si     0.017993333333     0.611000000000     0.475880000000     0          
T        Si     0.067580000000     0.691420000000     0.463405000000     0          
T        Si     0.130680000000     0.692515000000     0.397630000000     0          
T        Si     0.046386666667     0.693290000000     0.382190000000     0          
T        Si     0.136506666667     0.626860000000     0.341100000000     0          
T        Si     0.061013333333     0.557535000000     0.301260000000     0          
T        Si     0.141503333333     0.692465000000     0.284375000000     0          
O        O      0.315500000000     0.584395000000     0.437760000000     0          
O        O      0.000000000000     0.629060000000     0.000000000000     0          
O        O      0.054423333333     0.571705000000     0.000295000000     0          
O        O      0.034200000000     0.659050000000     0.465155000000     0          
O        O      0.065036666667     0.677415000000     0.425325000000     0          
O        O      0.081613333333     0.690045000000     0.373915000000     0          
O        O      0.146866666667     0.664535000000     0.374835000000     0          
O        O      0.009313333333     0.656830000000     0.353760000000     0          
O        O      0.124606666667     0.658485000000     0.304115000000     0          
O        O      0.098866666667     0.591600000000     0.331765000000     0          
O        O      0.055096666667     0.562945000000     0.260800000000     0          
O        O      0.020070000000     0.575355000000     0.297940000000     0          
T        Si     0.315340000000     0.611000000000     0.024120000000     0          
T        Si     0.265753333333     0.691420000000     0.036595000000     0          
T        Si     0.202653333333     0.692515000000     0.102370000000     0          
T        Si     0.286946666667     0.693290000000     0.117810000000     0          
T        Si     0.196826666667     0.626860000000     0.158900000000     0          
T        Si     0.272320000000     0.557535000000     0.198740000000     0          
T        Si     0.191830000000     0.692465000000     0.215625000000     0          
O        O      0.017833333333     0.584395000000     0.062240000000     0          
O        O      0.278910000000     0.571705000000     0.499705000000     0          
O        O      0.299133333333     0.659050000000     0.034845000000     0          
O        O      0.268296666667     0.677415000000     0.074675000000     0          
O        O      0.251720000000     0.690045000000     0.126085000000     0          
O        O      0.186466666667     0.664535000000     0.125165000000     0          
O        O      0.324020000000     0.656830000000     0.146240000000     0          
O        O      0.208726666667     0.658485000000     0.195885000000     0          
O        O      0.234466666667     0.591600000000     0.168235000000     0          
O        O      0.278236666667     0.562945000000     0.239200000000     0          
O        O      0.313263333333     0.575355000000     0.202060000000     0          
T        Si     0.148673333333     0.639000000000     0.524120000000     0          
T        Si     0.099086666667     0.558580000000     0.536595000000     0          
T        Si     0.035986666667     0.557485000000     0.602370000000     0          
T        Si     0.120280000000     0.556710000000     0.617810000000     0          
T        Si     0.030160000000     0.623140000000     0.658900000000     0          
T        Si     0.105653333333     0.692465000000     0.698740000000     0          
T        Si     0.025163333333     0.557535000000     0.715625000000     0          
O        O      0.184500000000     0.665605000000     0.562240000000     0          
O        O      0.166666666667     0.620940000000     0.500000000000     0          
O        O      0.112243333333     0.678295000000     0.999705000000     0          
O        O      0.132466666667     0.590950000000     0.534845000000     0          
O        O      0.101630000000     0.572585000000     0.574675000000     0          
O        O      0.108383333333     0.500000000000     0.536595000000     0          
O        O      0.085053333333     0.559955000000     0.626085000000     0          
O        O      0.021470000000     0.500000000000     0.595595000000     0          
O        O      0.019800000000     0.585465000000     0.625165000000     0          
O        O      0.157353333333     0.593170000000     0.646240000000     0          
O        O      0.136616666667     0.500000000000     0.624210000000     0          
O        O      0.042060000000     0.591515000000     0.695885000000     0          
O        O      0.067800000000     0.658400000000     0.668235000000     0          
O        O      0.096513333333     0.750000000000     0.685440000000     0          
O        O      0.111570000000     0.687055000000     0.739200000000     0          
O        O      0.146596666667     0.674645000000     0.702060000000     0          
O        O      0.023783333333     0.500000000000     0.703845000000     0          
T        Si     0.184660000000     0.639000000000     0.975880000000     0          
T        Si     0.234246666667     0.558580000000     0.963405000000     0          
T        Si     0.297346666667     0.557485000000     0.897630000000     0          
T        Si     0.213053333333     0.556710000000     0.882190000000     0          
T        Si     0.303173333333     0.623140000000     0.841100000000     0          
T        Si     0.227680000000     0.692465000000     0.801260000000     0          
T        Si     0.308170000000     0.557535000000     0.784375000000     0          
O        O      0.148833333333     0.665605000000     0.937760000000     0          
O        O      0.221090000000     0.678295000000     0.500295000000     0          
O        O      0.200866666667     0.590950000000     0.965155000000     0          
O        O      0.231703333333     0.572585000000     0.925325000000     0          
O        O      0.224950000000     0.500000000000     0.963405000000     0          
O        O      0.248280000000     0.559955000000     0.873915000000     0          
O        O      0.311863333333     0.500000000000     0.904405000000     0          
O        O      0.313533333333     0.585465000000     0.874835000000     0          
O        O      0.175980000000     0.593170000000     0.853760000000     0          
O        O      0.196716666667     0.500000000000     0.875790000000     0          
O        O      0.291273333333     0.591515000000     0.804115000000     0          
O        O      0.265533333333     0.658400000000     0.831765000000     0          
O        O      0.236820000000     0.750000000000     0.814560000000     0          
O        O      0.221763333333     0.687055000000     0.760800000000     0          
O        O      0.186736666667     0.674645000000     0.797940000000     0          
O        O      0.309550000000     0.500000000000     0.796155000000     0          
T        Si     0.184660000000     0.861000000000     0.975880000000     0          
T        Si     0.234246666667     0.941420000000     0.963405000000     0          
T        Si     0.297346666667     0.942515000000     0.897630000000     0          
T        Si     0.213053333333     0.943290000000     0.882190000000     0          
T        Si     0.303173333333     0.876860000000     0.841100000000     0          
T        Si     0.227680000000     0.807535000000     0.801260000000     0          
T        Si     0.308170000000     0.942465000000     0.784375000000     0          
O        O      0.148833333333     0.834395000000     0.937760000000     0          
O        O      0.166666666667     0.879060000000     0.500000000000     0          
O        O      0.221090000000     0.821705000000     0.500295000000     0          
O        O      0.200866666667     0.909050000000     0.965155000000     0          
O        O      0.231703333333     0.927415000000     0.925325000000     0          
O        O      0.248280000000     0.940045000000     0.873915000000     0          
O        O      0.313533333333     0.914535000000     0.874835000000     0          
O        O      0.175980000000     0.906830000000     0.853760000000     0          
O        O      0.291273333333     0.908485000000     0.804115000000     0          
O        O      0.265533333333     0.841600000000     0.831765000000     0          
O        O      0.221763333333     0.812945000000     0.760800000000     0          
O        O      0.186736666667     0.825355000000     0.797940000000     0          
T        Si     0.148673333333     0.861000000000     0.524120000000     0          
T        Si     0.099086666667     0.941420000000     0.536595000000     0          
T        Si     0.035986666667     0.942515000000     0.602370000000     0          
T        Si     0.120280000000     0.943290000000     0.617810000000     0          
T        Si     0.030160000000     0.876860000000     0.658900000000     0          
T        Si     0.105653333333     0.807535000000     0.698740000000     0          
T        Si     0.025163333333     0.942465000000     0.715625000000     0          
O        O      0.184500000000     0.834395000000     0.562240000000     0          
O        O      0.112243333333     0.821705000000     0.999705000000     0          
O        O      0.132466666667     0.909050000000     0.534845000000     0          
O        O      0.101630000000     0.927415000000     0.574675000000     0          
O        O      0.085053333333     0.940045000000     0.626085000000     0          
O        O      0.019800000000     0.914535000000     0.625165000000     0          
O        O      0.157353333333     0.906830000000     0.646240000000     0          
O        O      0.042060000000     0.908485000000     0.695885000000     0          
O        O      0.067800000000     0.841600000000     0.668235000000     0          
O        O      0.111570000000     0.812945000000     0.739200000000     0          
O        O      0.146596666667     0.825355000000     0.702060000000     0          
T        Si     0.315340000000     0.889000000000     0.524120000000     0          
T        Si     0.265753333333     0.808580000000     0.536595000000     0          
T        Si     0.202653333333     0.807485000000     0.602370000000     0          
T        Si     0.286946666667     0.806710000000     0.617810000000     0          
T        Si     0.196826666667     0.873140000000     0.658900000000     0          
T        Si     0.272320000000     0.942465000000     0.698740000000     0          
T        Si     0.191830000000     0.807535000000     0.715625000000     0          
O        O      0.017833333333     0.915605000000     0.562240000000     0          
O        O      0.000000000000     0.870940000000     0.500000000000     0          
O        O      0.278910000000     0.928295000000     0.999705000000     0          
O        O      0.299133333333     0.840950000000     0.534845000000     0          
O        O      0.268296666667     0.822585000000     0.574675000000     0          
O        O      0.275050000000     0.750000000000     0.536595000000     0          
O        O      0.251720000000     0.809955000000     0.626085000000     0          
O        O      0.188136666667     0.750000000000     0.595595000000     0          
O        O      0.186466666667     0.835465000000     0.625165000000     0          
O        O      0.324020000000     0.843170000000     0.646240000000     0          
O        O      0.303283333333     0.750000000000     0.624210000000     0          
O        O      0.208726666667     0.841515000000     0.695885000000     0          
O        O      0.234466666667     0.908400000000     0.668235000000     0          
O        O      0.263180000000     0.500000000000     0.685440000000     0          
O        O      0.278236666667     0.937055000000     0.739200000000     0          
O        O      0.313263333333     0.924645000000     0.702060000000     0          
O        O      0.190450000000     0.750000000000     0.703845000000     0          
T        Si     0.017993333333     0.889000000000     0.975880000000     0          
T        Si     0.067580000000     0.808580000000     0.963405000000     0          
T        Si     0.130680000000     0.807485000000     0.897630000000     0          
T        Si     0.046386666667     0.806710000000     0.882190000000     0          
T        Si     0.136506666667     0.873140000000     0.841100000000     0          
T        Si     0.061013333333     0.942465000000     0.801260000000     0          
T        Si     0.141503333333     0.807535000000     0.784375000000     0          
O        O      0.315500000000     0.915605000000     0.937760000000     0          
O        O      0.054423333333     0.928295000000     0.500295000000     0          
O        O      0.034200000000     0.840950000000     0.965155000000     0          
O        O      0.065036666667     0.822585000000     0.925325000000     0          
O        O      0.058283333333     0.750000000000     0.963405000000     0          
O        O      0.081613333333     0.809955000000     0.873915000000     0          
O        O      0.145196666667     0.750000000000     0.904405000000     0          
O        O      0.146866666667     0.835465000000     0.874835000000     0          
O        O      0.009313333333     0.843170000000     0.853760000000     0          
O        O      0.030050000000     0.750000000000     0.875790000000     0          
O        O      0.124606666667     0.841515000000     0.804115000000     0          
O        O      0.098866666667     0.908400000000     0.831765000000     0          
O        O      0.070153333333     0.500000000000     0.814560000000     0          
O        O      0.055096666667     0.937055000000     0.760800000000     0          
O        O      0.020070000000     0.924645000000     0.797940000000     0          
O        O      0.142883333333     0.750000000000     0.796155000000     0          
T        Si     0.017993333333     0.611000000000     0.975880000000     0          
T        Si     0.067580000000     0.691420000000     0.963405000000     0          
T        Si     0.130680000000     0.692515000000     0.897630000000     0          
T        Si     0.046386666667     0.693290000000     0.882190000000     0          
T        Si     0.136506666667     0.626860000000     0.841100000000     0          
T        Si     0.061013333333     0.557535000000     0.801260000000     0          
T        Si     0.141503333333     0.692465000000     0.784375000000     0          
O        O      0.315500000000     0.584395000000     0.937760000000     0          
O        O      0.000000000000     0.629060000000     0.500000000000     0          
O        O      0.054423333333     0.571705000000     0.500295000000     0          
O        O      0.034200000000     0.659050000000     0.965155000000     0          
O        O      0.065036666667     0.677415000000     0.925325000000     0          
O        O      0.081613333333     0.690045000000     0.873915000000     0          
O        O      0.146866666667     0.664535000000     0.874835000000     0          
O        O      0.009313333333     0.656830000000     0.853760000000     0          
O        O      0.124606666667     0.658485000000     0.804115000000     0          
O        O      0.098866666667     0.591600000000     0.831765000000     0          
O        O      0.055096666667     0.562945000000     0.760800000000     0          
O        O      0.020070000000     0.575355000000     0.797940000000     0          
T        Si     0.315340000000     0.611000000000     0.524120000000     0          
T        Si     0.265753333333     0.691420000000     0.536595000000     0          
T        Si     0.202653333333     0.692515000000     0.602370000000     0          
T        Si     0.286946666667     0.693290000000     0.617810000000     0          
T        Si     0.196826666667     0.626860000000     0.658900000000     0          
T        Si     0.272320000000     0.557535000000     0.698740000000     0          
T        Si     0.191830000000     0.692465000000     0.715625000000     0          
O        O      0.017833333333     0.584395000000     0.562240000000     0          
O        O      0.278910000000     0.571705000000     0.999705000000     0          
O        O      0.299133333333     0.659050000000     0.534845000000     0          
O        O      0.268296666667     0.677415000000     0.574675000000     0          
O        O      0.251720000000     0.690045000000     0.626085000000     0          
O        O      0.186466666667     0.664535000000     0.625165000000     0          
O        O      0.324020000000     0.656830000000     0.646240000000     0          
O        O      0.208726666667     0.658485000000     0.695885000000     0          
O        O      0.234466666667     0.591600000000     0.668235000000     0          
O        O      0.278236666667     0.562945000000     0.739200000000     0          
O        O      0.313263333333     0.575355000000     0.702060000000     0          
T        Si     0.482006666667     0.139000000000     0.024120000000     0          
T        Si     0.432420000000     0.058580000000     0.036595000000     0          
T        Si     0.369320000000     0.057485000000     0.102370000000     0          
T        Si     0.453613333333     0.056710000000     0.117810000000     0          
T        Si     0.363493333333     0.123140000000     0.158900000000     0          
T        Si     0.438986666667     0.192465000000     0.198740000000     0          
T        Si     0.358496666667     0.057535000000     0.215625000000     0          
O        O      0.517833333333     0.165605000000     0.062240000000     0          
O        O      0.500000000000     0.120940000000     0.000000000000     0          
O        O      0.445576666667     0.178295000000     0.499705000000     0          
O        O      0.465800000000     0.090950000000     0.034845000000     0          
O        O      0.434963333333     0.072585000000     0.074675000000     0          
O        O      0.441716666667     0.000000000000     0.036595000000     0          
O        O      0.418386666667     0.059955000000     0.126085000000     0          
O        O      0.354803333333     0.000000000000     0.095595000000     0          
O        O      0.353133333333     0.085465000000     0.125165000000     0          
O        O      0.490686666667     0.093170000000     0.146240000000     0          
O        O      0.469950000000     0.000000000000     0.124210000000     0          
O        O      0.375393333333     0.091515000000     0.195885000000     0          
O        O      0.401133333333     0.158400000000     0.168235000000     0          
O        O      0.429846666667     0.250000000000     0.185440000000     0          
O        O      0.444903333333     0.187055000000     0.239200000000     0          
O        O      0.479930000000     0.174645000000     0.202060000000     0          
O        O      0.357116666667     0.000000000000     0.203845000000     0          
T        Si     0.517993333333     0.139000000000     0.475880000000     0          
T        Si     0.567580000000     0.058580000000     0.463405000000     0          
T        Si     0.630680000000     0.057485000000     0.397630000000     0          
T        Si     0.546386666667     0.056710000000     0.382190000000     0          
T        Si     0.636506666667     0.123140000000     0.341100000000     0          
T        Si     0.561013333333     0.192465000000     0.301260000000     0          
T        Si     0.641503333333     0.057535000000     0.284375000000     0          
O        O      0.482166666667     0.165605000000     0.437760000000     0          
O        O      0.554423333333     0.178295000000     0.000295000000     0          
O        O      0.534200000000     0.090950000000     0.465155000000     0          
O        O      0.565036666667     0.072585000000     0.425325000000     0          
O        O      0.558283333333     0.000000000000     0.463405000000     0          
O        O      0.581613333333     0.059955000000     0.373915000000     0          
O        O      0.645196666667     0.000000000000     0.404405000000     0          
O        O      0.646866666667     0.085465000000     0.374835000000     0          
O        O      0.509313333333     0.093170000000     0.353760000000     0          
O        O      0.530050000000     0.000000000000     0.375790000000     0          
O        O      0.624606666667     0.091515000000     0.304115000000     0          
O        O      0.598866666667     0.158400000000     0.331765000000     0          
O        O      0.570153333333     0.250000000000     0.314560000000     0          
O        O      0.555096666667     0.187055000000     0.260800000000     0          
O        O      0.520070000000     0.174645000000     0.297940000000     0          
O        O      0.642883333333     0.000000000000     0.296155000000     0          
T        Si     0.517993333333     0.361000000000     0.475880000000     0          
T        Si     0.567580000000     0.441420000000     0.463405000000     0          
T        Si     0.630680000000     0.442515000000     0.397630000000     0          
T        Si     0.546386666667     0.443290000000     0.382190000000     0          
T        Si     0.636506666667     0.376860000000     0.341100000000     0          
T        Si     0.561013333333     0.307535000000     0.301260000000     0          
T        Si     0.641503333333     0.442465000000     0.284375000000     0          
O        O      0.482166666667     0.334395000000     0.437760000000     0          
O        O      0.500000000000     0.379060000000     0.000000000000     0          
O        O      0.554423333333     0.321705000000     0.000295000000     0          
O        O      0.534200000000     0.409050000000     0.465155000000     0          
O        O      0.565036666667     0.427415000000     0.425325000000     0          
O        O      0.581613333333     0.440045000000     0.373915000000     0          
O        O      0.646866666667     0.414535000000     0.374835000000     0          
O        O      0.509313333333     0.406830000000     0.353760000000     0          
O        O      0.624606666667     0.408485000000     0.304115000000     0          
O        O      0.598866666667     0.341600000000     0.331765000000     0          
O        O      0.555096666667     0.312945000000     0.260800000000     0          
O        O      0.520070000000     0.325355000000     0.297940000000     0          
T        Si     0.482006666667     0.361000000000     0.024120000000     0          
T        Si     0.432420000000     0.441420000000     0.036595000000     0          
T        Si     0.369320000000     0.442515000000     0.102370000000     0          
T        Si     0.453613333333     0.443290000000     0.117810000000     0          
T        Si     0.363493333333     0.376860000000     0.158900000000     0          
T        Si     0.438986666667     0.307535000000     0.198740000000     0          
T        Si     0.358496666667     0.442465000000     0.215625000000     0          
O        O      0.517833333333     0.334395000000     0.062240000000     0          
O        O      0.445576666667     0.321705000000     0.499705000000     0          
O        O      0.465800000000     0.409050000000     0.034845000000     0          
O        O      0.434963333333     0.427415000000     0.074675000000     0          
O        O      0.418386666667     0.440045000000     0.126085000000     0          
O        O      0.353133333333     0.414535000000     0.125165000000     0          
O        O      0.490686666667     0.406830000000     0.146240000000     0          
O        O      0.375393333333     0.408485000000     0.195885000000     0          
O        O      0.401133333333     0.341600000000     0.168235000000     0          
O        O      0.444903333333     0.312945000000     0.239200000000     0          
O        O      0.479930000000     0.325355000000     0.202060000000     0          
T        Si     0.648673333333     0.389000000000     0.024120000000     0          
T        Si     0.599086666667     0.308580000000     0.036595000000     0          
T        Si     0.535986666667     0.307485000000     0.102370000000     0          
T        Si     0.620280000000     0.306710000000     0.117810000000     0          
T        Si     0.530160000000     0.373140000000     0.158900000000     0          
T        Si     0.605653333333     0.442465000000     0.198740000000     0          
T        Si     0.525163333333     0.307535000000     0.215625000000     0          
O        O      0.351166666667     0.415605000000     0.062240000000     0          
O        O      0.333333333333     0.370940000000     0.000000000000     0          
O        O      0.612243333333     0.428295000000     0.499705000000     0          
O        O      0.632466666667     0.340950000000     0.034845000000     0          
O        O      0.601630000000     0.322585000000     0.074675000000     0          
O        O      0.608383333333     0.250000000000     0.036595000000     0          
O        O      0.585053333333     0.309955000000     0.126085000000     0          
O        O      0.521470000000     0.250000000000     0.095595000000     0          
O        O      0.519800000000     0.335465000000     0.125165000000     0          
O        O      0.657353333333     0.343170000000     0.146240000000     0          
O        O      0.636616666667     0.250000000000     0.124210000000     0          
O        O      0.542060000000     0.341515000000     0.195885000000     0          
O        O      0.567800000000     0.408400000000     0.168235000000     0          
O        O      0.596513333333     0.000000000000     0.185440000000     0          
O        O      0.611570000000     0.437055000000     0.239200000000     0          
O        O      0.646596666667     0.424645000000     0.202060000000     0          
O        O      0.523783333333     0.250000000000     0.203845000000     0          
T        Si     0.351326666667     0.389000000000     0.475880000000     0          
T        Si     0.400913333333     0.308580000000     0.463405000000     0          
T        Si     0.464013333333     0.307485000000     0.397630000000     0          
T        Si     0.379720000000     0.306710000000     0.382190000000     0          
T        Si     0.469840000000     0.373140000000     0.341100000000     0          
T        Si     0.394346666667     0.442465000000     0.301260000000     0          
T        Si     0.474836666667     0.307535000000     0.284375000000     0          
O        O      0.648833333333     0.415605000000     0.437760000000     0          
O        O      0.387756666667     0.428295000000     0.000295000000     0          
O        O      0.367533333333     0.340950000000     0.465155000000     0          
O        O      0.398370000000     0.322585000000     0.425325000000     0          
O        O      0.391616666667     0.250000000000     0.463405000000     0          
O        O      0.414946666667     0.309955000000     0.373915000000     0          
O        O      0.478530000000     0.250000000000     0.404405000000     0          
O        O      0.480200000000     0.335465000000     0.374835000000     0          
O        O      0.342646666667     0.343170000000     0.353760000000     0          
O        O      0.363383333333     0.250000000000     0.375790000000     0          
O        O      0.457940000000     0.341515000000     0.304115000000     0          
O        O      0.432200000000     0.408400000000     0.331765000000     0          
O        O      0.403486666667     0.000000000000     0.314560000000     0          
O        O      0.388430000000     0.437055000000     0.260800000000     0          
O        O      0.353403333333     0.424645000000     0.297940000000     0          
O        O      0.476216666667     0.250000000000     0.296155000000     0          
T        Si     0.351326666667     0.111000000000     0.475880000000     0          
T        Si     0.400913333333     0.191420000000     0.463405000000     0          
T        Si     0.464013333333     0.192515000000     0.397630000000     0          
T        Si     0.379720000000     0.193290000000     0.382190000000     0          
T        Si     0.469840000000     0.126860000000     0.341100000000     0          
T        Si     0.394346666667     0.057535000000     0.301260000000     0          
T        Si     0.474836666667     0.192465000000     0.284375000000     0          
O        O      0.648833333333     0.084395000000     0.437760000000     0          
O        O      0.333333333333     0.129060000000     0.000000000000     0          
O        O      0.387756666667     0.071705000000     0.000295000000     0          
O        O      0.367533333333     0.159050000000     0.465155000000     0          
O        O      0.398370000000     0.177415000000     0.425325000000     0          
O        O      0.414946666667     0.190045000000     0.373915000000     0          
O        O      0.480200000000     0.164535000000     0.374835000000     0          
O        O      0.342646666667     0.156830000000     0.353760000000     0          
O        O      0.457940000000     0.158485000000     0.304115000000     0          
O        O      0.432200000000     0.091600000000     0.331765000000     0          
O        O      0.388430000000     0.062945000000     0.260800000000     0          
O        O      0.353403333333     0.075355000000     0.297940000000     0          
T        Si     0.648673333333     0.111000000000     0.024120000000     0          
T        Si     0.599086666667     0.191420000000     0.036595000000     0          
T        Si     0.535986666667     0.192515000000     0.102370000000     0          
T        Si     0.620280000000     0.193290000000     0.117810000000     0          
T        Si     0.530160000000     0.126860000000     0.158900000000     0          
T        Si     0.605653333333     0.057535000000     0.198740000000     0          
T        Si     0.525163333333     0.192465000000     0.215625000000     0          
O        O      0.351166666667     0.084395000000     0.062240000000     0          
O        O      0.612243333333     0.071705000000     0.499705000000     0          
O        O      0.632466666667     0.159050000000     0.034845000000     0          
O        O      0.601630000000     0.177415000000     0.074675000000     0          
O        O      0.585053333333     0.190045000000     0.126085000000     0          
O        O      0.519800000000     0.164535000000     0.125165000000     0          
O        O      0.657353333333     0.156830000000     0.146240000000     0          
O        O      0.542060000000     0.158485000000     0.195885000000     0          
O        O      0.567800000000     0.091600000000     0.168235000000     0          
O        O      0.611570000000     0.062945000000     0.239200000000     0          
O        O      0.646596666667     0.075355000000     0.202060000000     0          
T        Si     0.482006666667     0.139000000000     0.524120000000     0          
T        Si     0.432420000000     0.058580000000     0.536595000000     0          
T        Si     0.369320000000     0.057485000000     0.602370000000     0          
T        Si     0.453613333333     0.056710000000     0.617810000000     0          
T        Si     0.363493333333     0.123140000000     0.658900000000     0          
T        Si     0.438986666667     0.192465000000     0.698740000000     0          
T        Si     0.358496666667     0.057535000000     0.715625000000     0          
O        O      0.517833333333     0.165605000000     0.562240000000     0          
O        O      0.500000000000     0.120940000000     0.500000000000     0          
O        O      0.445576666667     0.178295000000     0.999705000000     0          
O        O      0.465800000000     0.090950000000     0.534845000000     0          
O        O      0.434963333333     0.072585000000     0.574675000000     0          
O        O      0.441716666667     0.000000000000     0.536595000000     0          
O        O      0.418386666667     0.059955000000     0.626085000000     0          
O        O      0.354803333333     0.000000000000     0.595595000000     0          
O        O      0.353133333333     0.085465000000     0.625165000000     0          
O        O      0.490686666667     0.093170000000     0.646240000000     0          
O        O      0.469950000000     0.000000000000     0.624210000000     0          
O        O      0.375393333333     0.091515000000     0.695885000000     0          
O        O      0.401133333333     0.158400000000     0.668235000000     0          
O        O      0.429846666667     0.250000000000     0.685440000000     0          
O        O      0.444903333333     0.187055000000     0.739200000000     0          
O        O      0.479930000000     0.174645000000     0.702060000000     0          
O        O      0.357116666667     0.000000000000     0.703845000000     0          
T        Si     0.517993333333     0.139000000000     0.975880000000     0          
T        Si     0.567580000000     0.058580000000     0.963405000000     0          
T        Si     0.630680000000     0.057485000000     0.897630000000     0          
T        Si     0.546386666667     0.056710000000     0.882190000000     0          
T        Si     0.636506666667     0.123140000000     0.841100000000     0          
T        Si     0.561013333333     0.192465000000     0.801260000000     0          
T        Si     0.641503333333     0.057535000000     0.784375000000     0          
O        O      0.482166666667     0.165605000000     0.937760000000     0          
O        O      0.554423333333     0.178295000000     0.500295000000     0          
O        O      0.534200000000     0.090950000000     0.965155000000     0          
O        O      0.565036666667     0.072585000000     0.925325000000     0          
O        O      0.558283333333     0.000000000000     0.963405000000     0          
O        O      0.581613333333     0.059955000000     0.873915000000     0          
O        O      0.645196666667     0.000000000000     0.904405000000     0          
O        O      0.646866666667     0.085465000000     0.874835000000     0          
O        O      0.509313333333     0.093170000000     0.853760000000     0          
O        O      0.530050000000     0.000000000000     0.875790000000     0          
O        O      0.624606666667     0.091515000000     0.804115000000     0          
O        O      0.598866666667     0.158400000000     0.831765000000     0          
O        O      0.570153333333     0.250000000000     0.814560000000     0          
O        O      0.555096666667     0.187055000000     0.760800000000     0          
O        O      0.520070000000     0.174645000000     0.797940000000     0          
O        O      0.642883333333     0.000000000000     0.796155000000     0          
T        Si     0.517993333333     0.361000000000     0.975880000000     0          
T        Si     0.567580000000     0.441420000000     0.963405000000     0          
T        Si     0.630680000000     0.442515000000     0.897630000000     0          
T        Si     0.546386666667     0.443290000000     0.882190000000     0          
T        Si     0.636506666667     0.376860000000     0.841100000000     0          
T        Si     0.561013333333     0.307535000000     0.801260000000     0          
T        Si     0.641503333333     0.442465000000     0.784375000000     0          
O        O      0.482166666667     0.334395000000     0.937760000000     0          
O        O      0.500000000000     0.379060000000     0.500000000000     0          
O        O      0.554423333333     0.321705000000     0.500295000000     0          
O        O      0.534200000000     0.409050000000     0.965155000000     0          
O        O      0.565036666667     0.427415000000     0.925325000000     0          
O        O      0.581613333333     0.440045000000     0.873915000000     0          
O        O      0.646866666667     0.414535000000     0.874835000000     0          
O        O      0.509313333333     0.406830000000     0.853760000000     0          
O        O      0.624606666667     0.408485000000     0.804115000000     0          
O        O      0.598866666667     0.341600000000     0.831765000000     0          
O        O      0.555096666667     0.312945000000     0.760800000000     0          
O        O      0.520070000000     0.325355000000     0.797940000000     0          
T        Si     0.482006666667     0.361000000000     0.524120000000     0          
T        Si     0.432420000000     0.441420000000     0.536595000000     0          
T        Si     0.369320000000     0.442515000000     0.602370000000     0          
T        Si     0.453613333333     0.443290000000     0.617810000000     0          
T        Si     0.363493333333     0.376860000000     0.658900000000     0          
T        Si     0.438986666667     0.307535000000     0.698740000000     0          
T        Si     0.358496666667     0.442465000000     0.715625000000     0          
O        O      0.517833333333     0.334395000000     0.562240000000     0          
O        O      0.445576666667     0.321705000000     0.999705000000     0          
O        O      0.465800000000     0.409050000000     0.534845000000     0          
O        O      0.434963333333     0.427415000000     0.574675000000     0          
O        O      0.418386666667     0.440045000000     0.626085000000     0          
O        O      0.353133333333     0.414535000000     0.625165000000     0          
O        O      0.490686666667     0.406830000000     0.646240000000     0          
O        O      0.375393333333     0.408485000000     0.695885000000     0          
O        O      0.401133333333     0.341600000000     0.668235000000     0          
O        O      0.444903333333     0.312945000000     0.739200000000     0          
O        O      0.479930000000     0.325355000000     0.702060000000     0          
T        Si     0.648673333333     0.389000000000     0.524120000000     0          
T        Si     0.599086666667     0.308580000000     0.536595000000     0          
T        Si     0.535986666667     0.307485000000     0.602370000000     0          
T        Si     0.620280000000     0.306710000000     0.617810000000     0          
T        Si     0.530160000000     0.373140000000     0.658900000000     0          
T        Si     0.605653333333     0.442465000000     0.698740000000     0          
T        Si     0.525163333333     0.307535000000     0.715625000000     0          
O        O      0.351166666667     0.415605000000     0.562240000000     0          
O        O      0.333333333333     0.370940000000     0.500000000000     0          
O        O      0.612243333333     0.428295000000     0.999705000000     0          
O        O      0.632466666667     0.340950000000     0.534845000000     0          
O        O      0.601630000000     0.322585000000     0.574675000000     0          
O        O      0.608383333333     0.250000000000     0.536595000000     0          
O        O      0.585053333333     0.309955000000     0.626085000000     0          
O        O      0.521470000000     0.250000000000     0.595595000000     0          
O        O      0.519800000000     0.335465000000     0.625165000000     0          
O        O      0.657353333333     0.343170000000     0.646240000000     0          
O        O      0.636616666667     0.250000000000     0.624210000000     0          
O        O      0.542060000000     0.341515000000     0.695885000000     0          
O        O      0.567800000000     0.408400000000     0.668235000000     0          
O        O      0.596513333333     0.000000000000     0.685440000000     0          
O        O      0.611570000000     0.437055000000     0.739200000000     0          
O        O      0.646596666667     0.424645000000     0.702060000000     0          
O        O      0.523783333333     0.250000000000     0.703845000000     0          
T        Si     0.351326666667     0.389000000000     0.975880000000     0          
T        Si     0.400913333333     0.308580000000     0.963405000000     0          
T        Si     0.464013333333     0.307485000000     0.897630000000     0          
T        Si     0.379720000000     0.306710000000     0.882190000000     0          
T        Si     0.469840000000     0.373140000000     0.841100000000     0          
T        Si     0.394346666667     0.442465000000     0.801260000000     0          
T        Si     0.474836666667     0.307535000000     0.784375000000     0          
O        O      0.648833333333     0.415605000000     0.937760000000     0          
O        O      0.387756666667     0.428295000000     0.500295000000     0          
O        O      0.367533333333     0.340950000000     0.965155000000     0          
O        O      0.398370000000     0.322585000000     0.925325000000     0          
O        O      0.391616666667     0.250000000000     0.963405000000     0          
O        O      0.414946666667     0.309955000000     0.873915000000     0          
O        O      0.478530000000     0.250000000000     0.904405000000     0          
O        O      0.480200000000     0.335465000000     0.874835000000     0          
O        O      0.342646666667     0.343170000000     0.853760000000     0          
O        O      0.363383333333     0.250000000000     0.875790000000     0          
O        O      0.457940000000     0.341515000000     0.804115000000     0          
O        O      0.432200000000     0.408400000000     0.831765000000     0          
O        O      0.403486666667     0.000000000000     0.814560000000     0          
O        O      0.388430000000     0.437055000000     0.760800000000     0          
O        O      0.353403333333     0.424645000000     0.797940000000     0          
O        O      0.476216666667     0.250000000000     0.796155000000     0          
T        Si     0.351326666667     0.111000000000     0.975880000000     0          
T        Si     0.400913333333     0.191420000000     0.963405000000     0          
T        Si     0.464013333333     0.192515000000     0.897630000000     0          
T        Si     0.379720000000     0.193290000000     0.882190000000     0          
T        Si     0.469840000000     0.126860000000     0.841100000000     0          
T        Si     0.394346666667     0.057535000000     0.801260000000     0          
T        Si     0.474836666667     0.192465000000     0.784375000000     0          
O        O      0.648833333333     0.084395000000     0.937760000000     0          
O        O      0.333333333333     0.129060000000     0.500000000000     0          
O        O      0.387756666667     0.071705000000     0.500295000000     0          
O        O      0.367533333333     0.159050000000     0.965155000000     0          
O        O      0.398370000000     0.177415000000     0.925325000000     0          
O        O      0.414946666667     0.190045000000     0.873915000000     0          
O        O      0.480200000000     0.164535000000     0.874835000000     0          
O        O      0.342646666667     0.156830000000     0.853760000000     0          
O        O      0.457940000000     0.158485000000     0.804115000000     0          
O        O      0.432200000000     0.091600000000     0.831765000000     0          
O        O      0.388430000000     0.062945000000     0.760800000000     0          
O        O      0.353403333333     0.075355000000     0.797940000000     0          
T        Si     0.648673333333     0.111000000000     0.524120000000     0          
T        Si     0.599086666667     0.191420000000     0.536595000000     0          
T        Si     0.535986666667     0.192515000000     0.602370000000     0          
T        Si     0.620280000000     0.193290000000     0.617810000000     0          
T        Si     0.530160000000     0.126860000000     0.658900000000     0          
T        Si     0.605653333333     0.057535000000     0.698740000000     0          
T        Si     0.525163333333     0.192465000000     0.715625000000     0          
O        O      0.351166666667     0.084395000000     0.562240000000     0          
O        O      0.612243333333     0.071705000000     0.999705000000     0          
O        O      0.632466666667     0.159050000000     0.534845000000     0          
O        O      0.601630000000     0.177415000000     0.574675000000     0          
O        O      0.585053333333     0.190045000000     0.626085000000     0          
O        O      0.519800000000     0.164535000000     0.625165000000     0          
O        O      0.657353333333     0.156830000000     0.646240000000     0          
O        O      0.542060000000     0.158485000000     0.695885000000     0          
O        O      0.567800000000     0.091600000000     0.668235000000     0          
O        O      0.611570000000     0.062945000000     0.739200000000     0          
O        O      0.646596666667     0.075355000000     0.702060000000     0          
T        Si     0.482006666667     0.639000000000     0.024120000000     0          
T        Si     0.432420000000     0.558580000000     0.036595000000     0          
T        Si     0.369320000000     0.557485000000     0.102370000000     0          
T        Si     0.453613333333     0.556710000000     0.117810000000     0          
T        Si     0.363493333333     0.623140000000     0.158900000000     0          
T        Si     0.438986666667     0.692465000000     0.198740000000     0          
T        Si     0.358496666667     0.557535000000     0.215625000000     0          
O        O      0.517833333333     0.665605000000     0.062240000000     0          
O        O      0.500000000000     0.620940000000     0.000000000000     0          
O        O      0.445576666667     0.678295000000     0.499705000000     0          
O        O      0.465800000000     0.590950000000     0.034845000000     0          
O        O      0.434963333333     0.572585000000     0.074675000000     0          
O        O      0.441716666667     0.500000000000     0.036595000000     0          
O        O      0.418386666667     0.559955000000     0.126085000000     0          
O        O      0.354803333333     0.500000000000     0.095595000000     0          
O        O      0.353133333333     0.585465000000     0.125165000000     0          
O        O      0.490686666667     0.593170000000     0.146240000000     0          
O        O      0.469950000000     0.500000000000     0.124210000000     0          
O        O      0.375393333333     0.591515000000     0.195885000000     0          
O        O      0.401133333333     0.658400000000     0.168235000000     0          
O        O      0.429846666667     0.750000000000     0.185440000000     0          
O        O      0.444903333333     0.687055000000     0.239200000000     0          
O        O      0.479930000000     0.674645000000     0.202060000000     0          
O        O      0.357116666667     0.500000000000     0.203845000000     0          
T        Si     0.517993333333     0.639000000000     0.475880000000     0          
T        Si     0.567580000000     0.558580000000     0.463405000000     0          
T        Si     0.630680000000     0.557485000000     0.397630000000     0          
T        Si     0.546386666667     0.556710000000     0.382190000000     0          
T        Si     0.636506666667     0.623140000000     0.341100000000     0          
T        Si     0.561013333333     0.692465000000     0.301260000000     0          
T        Si     0.641503333333     0.557535000000     0.284375000000     0          
O        O      0.482166666667     0.665605000000     0.437760000000     0          
O        O      0.554423333333     0.678295000000     0.000295000000     0          
O        O      0.534200000000     0.590950000000     0.465155000000     0          
O        O      0.565036666667     0.572585000000     0.425325000000     0          
O        O      0.558283333333     0.500000000000     0.463405000000     0          
O        O      0.581613333333     0.559955000000     0.373915000000     0          
O        O      0.645196666667     0.500000000000     0.404405000000     0          
O        O      0.646866666667     0.585465000000     0.374835000000     0          
O        O      0.509313333333     0.593170000000     0.353760000000     0          
O        O      0.530050000000     0.500000000000     0.375790000000     0          
O        O      0.624606666667     0.591515000000     0.304115000000     0          
O        O      0.598866666667     0.658400000000     0.331765000000     0          
O        O      0.570153333333     0.750000000000     0.314560000000     0          
O        O      0.555096666667     0.687055000000     0.260800000000     0          
O        O      0.520070000000     0.674645000000     0.297940000000     0          
O        O      0.642883333333     0.500000000000     0.296155000000     0          
T        Si     0.517993333333     0.861000000000     0.475880000000     0          
T        Si     0.567580000000     0.941420000000     0.463405000000     0          
T        Si     0.630680000000     0.942515000000     0.397630000000     0          
T        Si     0.546386666667     0.943290000000     0.382190000000     0          
T        Si     0.636506666667     0.876860000000     0.341100000000     0          
T        Si     0.561013333333     0.807535000000     0.301260000000     0          
T        Si     0.641503333333     0.942465000000     0.284375000000     0          
O        O      0.482166666667     0.834395000000     0.437760000000     0          
O        O      0.500000000000     0.879060000000     0.000000000000     0          
O        O      0.554423333333     0.821705000000     0.000295000000     0          
O        O      0.534200000000     0.909050000000     0.465155000000     0          
O        O      0.565036666667     0.927415000000     0.425325000000     0          
O        O      0.581613333333     0.940045000000     0.373915000000     0          
O        O      0.646866666667     0.914535000000     0.374835000000     0          
O        O      0.509313333333     0.906830000000     0.353760000000     0          
O        O      0.624606666667     0.908485000000     0.304115000000     0          
O        O      0.598866666667     0.841600000000     0.331765000000     0          
O        O      0.555096666667     0.812945000000     0.260800000000     0          
O        O      0.520070000000     0.825355000000     0.297940000000     0          
T        Si     0.482006666667     0.861000000000     0.024120000000     0          
T        Si     0.432420000000     0.941420000000     0.036595000000     0          
T        Si     0.369320000000     0.942515000000     0.102370000000     0          
T        Si     0.453613333333     0.943290000000     0.117810000000     0          
T        Si     0.363493333333     0.876860000000     0.158900000000     0          
T        Si     0.438986666667     0.807535000000     0.198740000000     0          
T        Si     0.358496666667     0.942465000000     0.215625000000     0          
O        O      0.517833333333     0.834395000000     0.062240000000     0          
O        O      0.445576666667     0.821705000000     0.499705000000     0          
O        O      0.465800000000     0.909050000000     0.034845000000     0          
O        O      0.434963333333     0.927415000000     0.074675000000     0          
O        O      0.418386666667     0.940045000000     0.126085000000     0          
O        O      0.353133333333     0.914535000000     0.125165000000     0          
O        O      0.490686666667     0.906830000000     0.146240000000     0          
O        O      0.375393333333     0.908485000000     0.195885000000     0          
O        O      0.401133333333     0.841600000000     0.168235000000     0          
O        O      0.444903333333     0.812945000000     0.239200000000     0          
O        O      0.479930000000     0.825355000000     0.202060000000     0          
T        Si     0.648673333333     0.889000000000     0.024120000000     0          
T        Si     0.599086666667     0.808580000000     0.036595000000     0          
T        Si     0.535986666667     0.807485000000     0.102370000000     0          
T        Si     0.620280000000     0.806710000000     0.117810000000     0          
T        Si     0.530160000000     0.873140000000     0.158900000000     0          
T        Si     0.605653333333     0.942465000000     0.198740000000     0          
T        Si     0.525163333333     0.807535000000     0.215625000000     0          
O        O      0.351166666667     0.915605000000     0.062240000000     0          
O        O      0.333333333333     0.870940000000     0.000000000000     0          
O        O      0.612243333333     0.928295000000     0.499705000000     0          
O        O      0.632466666667     0.840950000000     0.034845000000     0          
O        O      0.601630000000     0.822585000000     0.074675000000     0          
O        O      0.608383333333     0.750000000000     0.036595000000     0          
O        O      0.585053333333     0.809955000000     0.126085000000     0          
O        O      0.521470000000     0.750000000000     0.095595000000     0          
O        O      0.519800000000     0.835465000000     0.125165000000     0          
O        O      0.657353333333     0.843170000000     0.146240000000     0          
O        O      0.636616666667     0.750000000000     0.124210000000     0          
O        O      0.542060000000     0.841515000000     0.195885000000     0          
O        O      0.567800000000     0.908400000000     0.168235000000     0          
O        O      0.596513333333     0.500000000000     0.185440000000     0          
O        O      0.611570000000     0.937055000000     0.239200000000     0          
O        O      0.646596666667     0.924645000000     0.202060000000     0          
O        O      0.523783333333     0.750000000000     0.203845000000     0          
T        Si     0.351326666667     0.889000000000     0.475880000000     0          
T        Si     0.400913333333     0.808580000000     0.463405000000     0          
T        Si     0.464013333333     0.807485000000     0.397630000000     0          
T        Si     0.379720000000     0.806710000000     0.382190000000     0          
T        Si     0.469840000000     0.873140000000     0.341100000000     0          
T        Si     0.394346666667     0.942465000000     0.301260000000     0          
T        Si     0.474836666667     0.807535000000     0.284375000000     0          
O        O      0.648833333333     0.915605000000     0.437760000000     0          
O        O      0.387756666667     0.928295000000     0.000295000000     0          
O        O      0.367533333333     0.840950000000     0.465155000000     0          
O        O      0.398370000000     0.822585000000     0.425325000000     0          
O        O      0.391616666667     0.750000000000     0.463405000000     0          
O        O      0.414946666667     0.809955000000     0.373915000000     0          
O        O      0.478530000000     0.750000000000     0.404405000000     0          
O        O      0.480200000000     0.835465000000     0.374835000000     0          
O        O      0.342646666667     0.843170000000     0.353760000000     0          
O        O      0.363383333333     0.750000000000     0.375790000000     0          
O        O      0.457940000000     0.841515000000     0.304115000000     0          
O        O      0.432200000000     0.908400000000     0.331765000000     0          
O        O      0.403486666667     0.500000000000     0.314560000000     0          
O        O      0.388430000000     0.937055000000     0.260800000000     0          
O        O      0.353403333333     0.924645000000     0.297940000000     0          
O        O      0.476216666667     0.750000000000     0.296155000000     0          
T        Si     0.351326666667     0.611000000000     0.475880000000     0          
T        Si     0.400913333333     0.691420000000     0.463405000000     0          
T        Si     0.464013333333     0.692515000000     0.397630000000     0          
T        Si     0.379720000000     0.693290000000     0.382190000000     0          
T        Si     0.469840000000     0.626860000000     0.341100000000     0          
T        Si     0.394346666667     0.557535000000     0.301260000000     0          
T        Si     0.474836666667     0.692465000000     0.284375000000     0          
O        O      0.648833333333     0.584395000000     0.437760000000     0          
O        O      0.333333333333     0.629060000000     0.000000000000     0          
O        O      0.387756666667     0.571705000000     0.000295000000     0          
O        O      0.367533333333     0.659050000000     0.465155000000     0          
O        O      0.398370000000     0.677415000000     0.425325000000     0          
O        O      0.414946666667     0.690045000000     0.373915000000     0          
O        O      0.480200000000     0.664535000000     0.374835000000     0          
O        O      0.342646666667     0.656830000000     0.353760000000     0          
O        O      0.457940000000     0.658485000000     0.304115000000     0          
O        O      0.432200000000     0.591600000000     0.331765000000     0          
O        O      0.388430000000     0.562945000000     0.260800000000     0          
O        O      0.353403333333     0.575355000000     0.297940000000     0          
T        Si     0.648673333333     0.611000000000     0.024120000000     0          
T        Si     0.599086666667     0.691420000000     0.036595000000     0          
T        Si     0.535986666667     0.692515000000     0.102370000000     0          
T        Si     0.620280000000     0.693290000000     0.117810000000     0          
T        Si     0.530160000000     0.626860000000     0.158900000000     0          
T        Si     0.605653333333     0.557535000000     0.198740000000     0          
T        Si     0.525163333333     0.692465000000     0.215625000000     0          
O        O      0.351166666667     0.584395000000     0.062240000000     0          
O        O      0.612243333333     0.571705000000     0.499705000000     0          
O        O      0.632466666667     0.659050000000     0.034845000000     0          
O        O      0.601630000000     0.677415000000     0.074675000000     0          
O        O      0.585053333333     0.690045000000     0.126085000000     0          
O        O      0.519800000000     0.664535000000     0.125165000000     0          
O        O      0.657353333333     0.656830000000     0.146240000000     0          
O        O      0.542060000000     0.658485000000     0.195885000000     0          
O        O      0.567800000000     0.591600000000     0.168235000000     0          
O        O      0.611570000000     0.562945000000     0.239200000000     0          
O        O      0.646596666667     0.575355000000     0.202060000000     0          
T        Si     0.482006666667     0.639000000000     0.524120000000     0          
T        Si     0.432420000000     0.558580000000     0.536595000000     0          
T        Si     0.369320000000     0.557485000000     0.602370000000     0          
T        Si     0.453613333333     0.556710000000     0.617810000000     0          
T        Si     0.363493333333     0.623140000000     0.658900000000     0          
T        Si     0.438986666667     0.692465000000     0.698740000000     0          
T        Si     0.358496666667     0.557535000000     0.715625000000     0          
O        O      0.517833333333     0.665605000000     0.562240000000     0          
O        O      0.500000000000     0.620940000000     0.500000000000     0          
O        O      0.445576666667     0.678295000000     0.999705000000     0          
O        O      0.465800000000     0.590950000000     0.534845000000     0          
O        O      0.434963333333     0.572585000000     0.574675000000     0          
O        O      0.441716666667     0.500000000000     0.536595000000     0          
O        O      0.418386666667     0.559955000000     0.626085000000     0          
O        O      0.354803333333     0.500000000000     0.595595000000     0          
O        O      0.353133333333     0.585465000000     0.625165000000     0          
O        O      0.490686666667     0.593170000000     0.646240000000     0          
O        O      0.469950000000     0.500000000000     0.624210000000     0          
O        O      0.375393333333     0.591515000000     0.695885000000     0          
O        O      0.401133333333     0.658400000000     0.668235000000     0          
O        O      0.429846666667     0.750000000000     0.685440000000     0          
O        O      0.444903333333     0.687055000000     0.739200000000     0          
O        O      0.479930000000     0.674645000000     0.702060000000     0          
O        O      0.357116666667     0.500000000000     0.703845000000     0          
T        Si     0.517993333333     0.639000000000     0.975880000000     0          
T        Si     0.567580000000     0.558580000000     0.963405000000     0          
T        Si     0.630680000000     0.557485000000     0.897630000000     0          
T        Si     0.546386666667     0.556710000000     0.882190000000     0          
T        Si     0.636506666667     0.623140000000     0.841100000000     0          
T        Si     0.561013333333     0.692465000000     0.801260000000     0          
T        Si     0.641503333333     0.557535000000     0.784375000000     0          
O        O      0.482166666667     0.665605000000     0.937760000000     0          
O        O      0.554423333333     0.678295000000     0.500295000000     0          
O        O      0.534200000000     0.590950000000     0.965155000000     0          
O        O      0.565036666667     0.572585000000     0.925325000000     0          
O        O      0.558283333333     0.500000000000     0.963405000000     0          
O        O      0.581613333333     0.559955000000     0.873915000000     0          
O        O      0.645196666667     0.500000000000     0.904405000000     0          
O        O      0.646866666667     0.585465000000     0.874835000000     0          
O        O      0.509313333333     0.593170000000     0.853760000000     0          
O        O      0.530050000000     0.500000000000     0.875790000000     0          
O        O      0.624606666667     0.591515000000     0.804115000000     0          
O        O      0.598866666667     0.658400000000     0.831765000000     0          
O        O      0.570153333333     0.750000000000     0.814560000000     0          
O        O      0.555096666667     0.687055000000     0.760800000000     0          
O        O      0.520070000000     0.674645000000     0.797940000000     0          
O        O      0.642883333333     0.500000000000     0.796155000000     0          
T        Si     0.517993333333     0.861000000000     0.975880000000     0          
T        Si     0.567580000000     0.941420000000     0.963405000000     0          
T        Si     0.630680000000     0.942515000000     0.897630000000     0          
T        Si     0.546386666667     0.943290000000     0.882190000000     0          
T        Si     0.636506666667     0.876860000000     0.841100000000     0          
T        Si     0.561013333333     0.807535000000     0.801260000000     0          
T        Si     0.641503333333     0.942465000000     0.784375000000     0          
O        O      0.482166666667     0.834395000000     0.937760000000     0          
O        O      0.500000000000     0.879060000000     0.500000000000     0          
O        O      0.554423333333     0.821705000000     0.500295000000     0          
O        O      0.534200000000     0.909050000000     0.965155000000     0          
O        O      0.565036666667     0.927415000000     0.925325000000     0          
O        O      0.581613333333     0.940045000000     0.873915000000     0          
O        O      0.646866666667     0.914535000000     0.874835000000     0          
O        O      0.509313333333     0.906830000000     0.853760000000     0          
O        O      0.624606666667     0.908485000000     0.804115000000     0          
O        O      0.598866666667     0.841600000000     0.831765000000     0          
O        O      0.555096666667     0.812945000000     0.760800000000     0          
O        O      0.520070000000     0.825355000000     0.797940000000     0          
T        Si     0.482006666667     0.861000000000     0.524120000000     0          
T        Si     0.432420000000     0.941420000000     0.536595000000     0          
T        Si     0.369320000000     0.942515000000     0.602370000000     0          
T        Si     0.453613333333     0.943290000000     0.617810000000     0          
T        Si     0.363493333333     0.876860000000     0.658900000000     0          
T        Si     0.438986666667     0.807535000000     0.698740000000     0          
T        Si     0.358496666667     0.942465000000     0.715625000000     0          
O        O      0.517833333333     0.834395000000     0.562240000000     0          
O        O      0.445576666667     0.821705000000     0.999705000000     0          
O        O      0.465800000000     0.909050000000     0.534845000000     0          
O        O      0.434963333333     0.927415000000     0.574675000000     0          
O        O      0.418386666667     0.940045000000     0.626085000000     0          
O        O      0.353133333333     0.914535000000     0.625165000000     0          
O        O      0.490686666667     0.906830000000     0.646240000000     0          
O        O      0.375393333333     0.908485000000     0.695885000000     0          
O        O      0.401133333333     0.841600000000     0.668235000000     0          
O        O      0.444903333333     0.812945000000     0.739200000000     0          
O        O      0.479930000000     0.825355000000     0.702060000000     0          
T        Si     0.648673333333     0.889000000000     0.524120000000     0          
T        Si     0.599086666667     0.808580000000     0.536595000000     0          
T        Si     0.535986666667     0.807485000000     0.602370000000     0          
T        Si     0.620280000000     0.806710000000     0.617810000000     0          
T        Si     0.530160000000     0.873140000000     0.658900000000     0          
T        Si     0.605653333333     0.942465000000     0.698740000000     0          
T        Si     0.525163333333     0.807535000000     0.715625000000     0          
O        O      0.351166666667     0.915605000000     0.562240000000     0          
O        O      0.333333333333     0.870940000000     0.500000000000     0          
O        O      0.612243333333     0.928295000000     0.999705000000     0          
O        O      0.632466666667     0.840950000000     0.534845000000     0          
O        O      0.601630000000     0.822585000000     0.574675000000     0          
O        O      0.608383333333     0.750000000000     0.536595000000     0          
O        O      0.585053333333     0.809955000000     0.626085000000     0          
O        O      0.521470000000     0.750000000000     0.595595000000     0          
O        O      0.519800000000     0.835465000000     0.625165000000     0          
O        O      0.657353333333     0.843170000000     0.646240000000     0          
O        O      0.636616666667     0.750000000000     0.624210000000     0          
O        O      0.542060000000     0.841515000000     0.695885000000     0          
O        O      0.567800000000     0.908400000000     0.668235000000     0          
O        O      0.596513333333     0.500000000000     0.685440000000     0          
O        O      0.611570000000     0.937055000000     0.739200000000     0          
O        O      0.646596666667     0.924645000000     0.702060000000     0          
O        O      0.523783333333     0.750000000000     0.703845000000     0          
T        Si     0.351326666667     0.889000000000     0.975880000000     0          
T        Si     0.400913333333     0.808580000000     0.963405000000     0          
T        Si     0.464013333333     0.807485000000     0.897630000000     0          
T        Si     0.379720000000     0.806710000000     0.882190000000     0          
T        Si     0.469840000000     0.873140000000     0.841100000000     0          
T        Si     0.394346666667     0.942465000000     0.801260000000     0          
T        Si     0.474836666667     0.807535000000     0.784375000000     0          
O        O      0.648833333333     0.915605000000     0.937760000000     0          
O        O      0.387756666667     0.928295000000     0.500295000000     0          
O        O      0.367533333333     0.840950000000     0.965155000000     0          
O        O      0.398370000000     0.822585000000     0.925325000000     0          
O        O      0.391616666667     0.750000000000     0.963405000000     0          
O        O      0.414946666667     0.809955000000     0.873915000000     0          
O        O      0.478530000000     0.750000000000     0.904405000000     0          
O        O      0.480200000000     0.835465000000     0.874835000000     0          
O        O      0.342646666667     0.843170000000     0.853760000000     0          
O        O      0.363383333333     0.750000000000     0.875790000000     0          
O        O      0.457940000000     0.841515000000     0.804115000000     0          
O        O      0.432200000000     0.908400000000     0.831765000000     0          
O        O      0.403486666667     0.500000000000     0.814560000000     0          
O        O      0.388430000000     0.937055000000     0.760800000000     0          
O        O      0.353403333333     0.924645000000     0.797940000000     0          
O        O      0.476216666667     0.750000000000     0.796155000000     0          
T        Si     0.351326666667     0.611000000000     0.975880000000     0          
T        Si     0.400913333333     0.691420000000     0.963405000000     0          
T        Si     0.464013333333     0.692515000000     0.897630000000     0          
T        Si     0.379720000000     0.693290000000     0.882190000000     0          
T        Si     0.469840000000     0.626860000000     0.841100000000     0          
T        Si     0.394346666667     0.557535000000     0.801260000000     0          
T        Si     0.474836666667     0.692465000000     0.784375000000     0          
O        O      0.648833333333     0.584395000000     0.937760000000     0          
O        O      0.333333333333     0.629060000000     0.500000000000     0          
O        O      0.387756666667     0.571705000000     0.500295000000     0          
O        O      0.367533333333     0.659050000000     0.965155000000     0          
O        O      0.398370000000     0.677415000000     0.925325000000     0          
O        O      0.414946666667     0.690045000000     0.873915000000     0          
O        O      0.480200000000     0.664535000000     0.874835000000     0          
O        O      0.342646666667     0.656830000000     0.853760000000     0          
O        O      0.457940000000     0.658485000000     0.804115000000     0          
O        O      0.432200000000     0.591600000000     0.831765000000     0          
O        O      0.388430000000     0.562945000000     0.760800000000     0          
O        O      0.353403333333     0.575355000000     0.797940000000     0          
T        Si     0.648673333333     0.611000000000     0.524120000000     0          
T        Si     0.599086666667     0.691420000000     0.536595000000     0          
T        Si     0.535986666667     0.692515000000     0.602370000000     0          
T        Si     0.620280000000     0.693290000000     0.617810000000     0          
T        Si     0.530160000000     0.626860000000     0.658900000000     0          
T        Si     0.605653333333     0.557535000000     0.698740000000     0          
T        Si     0.525163333333     0.692465000000     0.715625000000     0          
O        O      0.351166666667     0.584395000000     0.562240000000     0          
O        O      0.612243333333     0.571705000000     0.999705000000     0          
O        O      0.632466666667     0.659050000000     0.534845000000     0          
O        O      0.601630000000     0.677415000000     0.574675000000     0          
O        O      0.585053333333     0.690045000000     0.626085000000     0          
O        O      0.519800000000     0.664535000000     0.625165000000     0          
O        O      0.657353333333     0.656830000000     0.646240000000     0          
O        O      0.542060000000     0.658485000000     0.695885000000     0          
O        O      0.567800000000     0.591600000000     0.668235000000     0          
O        O      0.611570000000     0.562945000000     0.739200000000     0          
O        O      0.646596666667     0.575355000000     0.702060000000     0          
T        Si     0.815340000000     0.139000000000     0.024120000000     0          
T        Si     0.765753333333     0.058580000000     0.036595000000     0          
T        Si     0.702653333333     0.057485000000     0.102370000000     0          
T        Si     0.786946666667     0.056710000000     0.117810000000     0          
T        Si     0.696826666667     0.123140000000     0.158900000000     0          
T        Si     0.772320000000     0.192465000000     0.198740000000     0          
T        Si     0.691830000000     0.057535000000     0.215625000000     0          
O        O      0.851166666667     0.165605000000     0.062240000000     0          
O        O      0.833333333333     0.120940000000     0.000000000000     0          
O        O      0.778910000000     0.178295000000     0.499705000000     0          
O        O      0.799133333333     0.090950000000     0.034845000000     0          
O        O      0.768296666667     0.072585000000     0.074675000000     0          
O        O      0.775050000000     0.000000000000     0.036595000000     0          
O        O      0.751720000000     0.059955000000     0.126085000000     0          
O        O      0.688136666667     0.000000000000     0.095595000000     0          
O        O      0.686466666667     0.085465000000     0.125165000000     0          
O        O      0.824020000000     0.093170000000     0.146240000000     0          
O        O      0.803283333333     0.000000000000     0.124210000000     0          
O        O      0.708726666667     0.091515000000     0.195885000000     0          
O        O      0.734466666667     0.158400000000     0.168235000000     0          
O        O      0.763180000000     0.250000000000     0.185440000000     0          
O        O      0.778236666667     0.187055000000     0.239200000000     0          
O        O      0.813263333333     0.174645000000     0.202060000000     0          
O        O      0.690450000000     0.000000000000     0.203845000000     0          
T        Si     0.851326666667     0.139000000000     0.475880000000     0          
T        Si     0.900913333333     0.058580000000     0.463405000000     0          
T        Si     0.964013333333     0.057485000000     0.397630000000     0          
T        Si     0.879720000000     0.056710000000     0.382190000000     0          
T        Si     0.969840000000     0.123140000000     0.341100000000     0          
T        Si     0.894346666667     0.192465000000     0.301260000000     0          
T        Si     0.974836666667     0.057535000000     0.284375000000     0          
O        O      0.815500000000     0.165605000000     0.437760000000     0          
O        O      0.887756666667     0.178295000000     0.000295000000     0          
O        O      0.867533333333     0.090950000000     0.465155000000     0          
O        O      0.898370000000     0.072585000000     0.425325000000     0          
O        O      0.891616666667     0.000000000000     0.463405000000     0          
O        O      0.914946666667     0.059955000000     0.373915000000     0          
O        O      0.978530000000     0.000000000000     0.404405000000     0          
O        O      0.980200000000     0.085465000000     0.374835000000     0          
O        O      0.842646666667     0.093170000000     0.353760000000     0          
O        O      0.863383333333     0.000000000000     0.375790000000     0          
O        O      0.957940000000     0.091515000000     0.304115000000     0          
O        O      0.932200000000     0.158400000000     0.331765000000     0          
O        O      0.903486666667     0.250000000000     0.314560000000     0          
O        O      0.888430000000     0.187055000000     0.260800000000     0          
O        O      0.853403333333     0.174645000000     0.297940000000     0          
O        O      0.976216666667     0.000000000000     0.296155000000     0          
T        Si     0.851326666667     0.361000000000     0.475880000000     0          
T        Si     0.900913333333     0.441420000000     0.463405000000     0          
T        Si     0.964013333333     0.442515000000     0.397630000000     0          
T        Si     0.879720000000     0.443290000000     0.382190000000     0          
T        Si     0.969840000000     0.376860000000     0.341100000000     0          
T        Si     0.894346666667     0.307535000000     0.301260000000     0          
T        Si     0.974836666667     0.442465000000     0.284375000000     0          
O        O      0.815500000000     0.334395000000     0.437760000000     0          
O        O      0.833333333333     0.379060000000     0.000000000000     0          
O        O      0.887756666667     0.321705000000     0.000295000000     0          
O        O      0.867533333333     0.409050000000     0.465155000000     0          
O        O      0.898370000000     0.427415000000     0.425325000000     0          
O        O      0.914946666667     0.440045000000     0.373915000000     0          
O        O      0.980200000000     0.414535000000     0.374835000000     0          
O        O      0.842646666667     0.406830000000     0.353760000000     0          
O        O      0.957940000000     0.408485000000     0.304115000000     0          
O        O      0.932200000000     0.341600000000     0.331765000000     0          
O        O      0.888430000000     0.312945000000     0.260800000000     0          
O        O      0.853403333333     0.325355000000     0.297940000000     0          
T        Si     0.815340000000     0.361000000000     0.024120000000     0          
T        Si     0.765753333333     0.441420000000     0.036595000000     0          
T        Si     0.702653333333     0.442515000000     0.102370000000     0          
T        Si     0.786946666667     0.443290000000     0.117810000000     0          
T        Si     0.696826666667     0.376860000000     0.158900000000     0          
T        Si     0.772320000000     0.307535000000     0.198740000000     0          
T        Si     0.691830000000     0.442465000000     0.215625000000     0          
O        O      0.851166666667     0.334395000000     0.062240000000     0          
O        O      0.778910000000     0.321705000000     0.499705000000     0          
O        O      0.799133333333     0.409050000000     0.034845000000     0          
O        O      0.768296666667     0.427415000000     0.074675000000     0          
O        O      0.751720000000     0.440045000000     0.126085000000     0          
O        O      0.686466666667     0.414535000000     0.125165000000     0          
O        O      0.824020000000     0.406830000000     0.146240000000     0          
O        O      0.708726666667     0.408485000000     0.195885000000     0          
O        O      0.734466666667     0.341600000000     0.168235000000     0          
O        O      0.778236666667     0.312945000000     0.239200000000     0          
O        O      0.813263333333     0.325355000000     0.202060000000     0          
T        Si     0.982006666667     0.389000000000     0.024120000000     0          
T        Si     0.932420000000     0.308580000000     0.036595000000     0          
T        Si     0.869320000000     0.307485000000     0.102370000000     0          
T        Si     0.953613333333     0.306710000000     0.117810000000     0          
T        Si     0.863493333333     0.373140000000     0.158900000000     0          
T        Si     0.938986666667     0.442465000000     0.198740000000     0          
T        Si     0.858496666667     0.307535000000     0.215625000000     0          
O        O      0.684500000000     0.415605000000     0.062240000000     0          
O        O      0.666666666667     0.370940000000     0.000000000000     0          
O        O      0.945576666667     0.428295000000     0.499705000000     0          
O        O      0.965800000000     0.340950000000     0.034845000000     0          
O        O      0.934963333333     0.322585000000     0.074675000000     0          
O        O      0.941716666667     0.250000000000     0.036595000000     0          
O        O      0.918386666667     0.309955000000     0.126085000000     0          
O        O      0.854803333333     0.250000000000     0.095595000000     0          
O        O      0.853133333333     0.335465000000     0.125165000000     0          
O        O      0.990686666667     0.343170000000     0.146240000000     0          
O        O      0.969950000000     0.250000000000     0.124210000000     0          
O        O      0.875393333333     0.341515000000     0.195885000000     0          
O        O      0.901133333333     0.408400000000     0.168235000000     0          
O        O      0.929846666667     0.000000000000     0.185440000000     0          
O        O      0.944903333333     0.437055000000     0.239200000000     0          
O        O      0.979930000000     0.424645000000     0.202060000000     0          
O        O      0.857116666667     0.250000000000     0.203845000000     0          
T        Si     0.684660000000     0.389000000000     0.475880000000     0          
T        Si     0.734246666667     0.308580000000     0.463405000000     0          
T        Si     0.797346666667     0.307485000000     0.397630000000     0          
T        Si     0.713053333333     0.306710000000     0.382190000000     0          
T        Si     0.803173333333     0.373140000000     0.341100000000     0          
T        Si     0.727680000000     0.442465000000     0.301260000000     0          
T        Si     0.808170000000     0.307535000000     0.284375000000     0          
O        O      0.982166666667     0.415605000000     0.437760000000     0          
O        O      0.721090000000     0.428295000000     0.000295000000     0          
O        O      0.700866666667     0.340950000000     0.465155000000     0          
O        O      0.731703333333     0.322585000000     0.425325000000     0          
O        O      0.724950000000     0.250000000000     0.463405000000     0          
O        O      0.748280000000     0.309955000000     0.373915000000     0          
O        O      0.811863333333     0.250000000000     0.404405000000     0          
O        O      0.813533333333     0.335465000000     0.374835000000     0          
O        O      0.675980000000     0.343170000000     0.353760000000     0          
O        O      0.696716666667     0.250000000000     0.375790000000     0          
O        O      0.791273333333     0.341515000000     0.304115000000     0          
O        O      0.765533333333     0.408400000000     0.331765000000     0          
O        O      0.736820000000     0.000000000000     0.314560000000     0          
O        O      0.721763333333     0.437055000000     0.260800000000     0          
O        O      0.686736666667     0.424645000000     0.297940000000     0          
O        O      0.809550000000     0.250000000000     0.296155000000     0          
T        Si     0.684660000000     0.111000000000     0.475880000000     0          
T        Si     0.734246666667     0.191420000000     0.463405000000     0          
T        Si     0.797346666667     0.192515000000     0.397630000000     0          
T        Si     0.713053333333     0.193290000000     0.382190000000     0          
T        Si     0.803173333333     0.126860000000     0.341100000000     0          
T        Si     0.727680000000     0.057535000000     0.301260000000     0          
T        Si     0.808170000000     0.192465000000     0.284375000000     0          
O        O      0.982166666667     0.084395000000     0.437760000000     0          
O        O      0.666666666667     0.129060000000     0.000000000000     0          
O        O      0.721090000000     0.071705000000     0.000295000000     0          
O        O      0.700866666667     0.159050000000     0.465155000000     0          
O        O      0.731703333333     0.177415000000     0.425325000000     0          
O        O      0.748280000000     0.190045000000     0.373915000000     0          
O        O      0.813533333333     0.164535000000     0.374835000000     0          
O        O      0.675980000000     0.156830000000     0.353760000000     0          
O        O      0.791273333333     0.158485000000     0.304115000000     0          
O        O      0.765533333333     0.091600000000     0.331765000000     0          
O        O      0.721763333333     0.062945000000     0.260800000000     0          
O        O      0.686736666667     0.075355000000     0.297940000000     0          
T        Si     0.982006666667     0.111000000000     0.024120000000     0          
T        Si     0.932420000000     0.191420000000     0.036595000000     0          
T        Si     0.869320000000     0.192515000000     0.102370000000     0          
T        Si     0.953613333333     0.193290000000     0.117810000000     0          
T        Si     0.863493333333     0.126860000000     0.158900000000     0          
T        Si     0.938986666667     0.057535000000     0.198740000000     0          
T        Si     0.858496666667     0.192465000000     0.215625000000     0          
O        O      0.684500000000     0.084395000000     0.062240000000     0          
O        O      0.945576666667     0.071705000000     0.499705000000     0          
O        O      0.965800000000     0.159050000000     0.034845000000     0          
O        O      0.934963333333     0.177415000000     0.074675000000     0          
O        O      0.918386666667     0.190045000000     0.126085000000     0          
O        O      0.853133333333     0.164535000000     0.125165000000     0          
O        O      0.990686666667     0.156830000000     0.146240000000     0          
O        O      0.875393333333     0.158485000000     0.195885000000     0          
O        O      0.901133333333     0.091600000000     0.168235000000     0          
O        O      0.944903333333     0.062945000000     0.239200000000     0          
O        O      0.979930000000     0.075355000000     0.202060000000     0          
T        Si     0.815340000000     0.139000000000     0.524120000000     0          
T        Si     0.765753333333     0.058580000000     0.536595000000     0          
T        Si     0.702653333333     0.057485000000     0.602370000000     0          
T        Si     0.786946666667     0.056710000000     0.617810000000     0          
T        Si     0.696826666667     0.123140000000     0.658900000000     0          
T        Si     0.772320000000     0.192465000000     0.698740000000     0          
T        Si     0.691830000000     0.057535000000     0.715625000000     0          
O        O      0.851166666667     0.165605000000     0.562240000000     0          
O        O      0.833333333333     0.120940000000     0.500000000000     0          
O        O      0.778910000000     0.178295000000     0.999705000000     0          
O        O      0.799133333333     0.090950000000     0.534845000000     0          
O        O      0.768296666667     0.072585000000     0.574675000000     0          
O        O      0.775050000000     0.000000000000     0.536595000000     0          
O        O      0.751720000000     0.059955000000     0.626085000000     0          
O        O      0.688136666667     0.000000000000     0.595595000000     0          
O        O      0.686466666667     0.085465000000     0.625165000000     0          
O        O      0.824020000000     0.093170000000     0.646240000000     0          
O        O      0.803283333333     0.000000000000     0.624210000000     0          
O        O      0.708726666667     0.091515000000     0.695885000000     0          
O        O      0.734466666667     0.158400000000     0.668235000000     0          
O        O      0.763180000000     0.250000000000     0.685440000000     0          
O        O      0.778236666667     0.187055000000     0.739200000000     0          
O        O      0.813263333333     0.174645000000     0.702060000000     0          
O        O      0.690450000000     0.000000000000     0.703845000000     0          
T        Si     0.851326666667     0.139000000000     0.975880000000     0          
T        Si     0.900913333333     0.058580000000     0.963405000000     0          
T        Si     0.964013333333     0.057485000000     0.897630000000     0          
T        Si     0.879720000000     0.056710000000     0.882190000000     0          
T        Si     0.969840000000     0.123140000000     0.841100000000     0          
T        Si     0.894346666667     0.192465000000     0.801260000000     0          
T        Si     0.974836666667     0.057535000000     0.784375000000     0          
O        O      0.815500000000     0.165605000000     0.937760000000     0          
O        O      0.887756666667     0.178295000000     0.500295000000     0          
O        O      0.867533333333     0.090950000000     0.965155000000     0          
O        O      0.898370000000     0.072585000000     0.925325000000     0          
O        O      0.891616666667     0.000000000000     0.963405000000     0          
O        O      0.914946666667     0.059955000000     0.873915000000     0          
O        O      0.978530000000     0.000000000000     0.904405000000     0          
O        O      0.980200000000     0.085465000000     0.874835000000     0          
O        O      0.842646666667     0.093170000000     0.853760000000     0          
O        O      0.863383333333     0.000000000000     0.875790000000     0          
O        O      0.957940000000     0.091515000000     0.804115000000     0          
O        O      0.932200000000     0.158400000000     0.831765000000     0          
O        O      0.903486666667     0.250000000000     0.814560000000     0          
O        O      0.888430000000     0.187055000000     0.760800000000     0          
O        O      0.853403333333     0.174645000000     0.797940000000     0          
O        O      0.976216666667     0.000000000000     0.796155000000     0          
T        Si     0.851326666667     0.361000000000     0.975880000000     0          
T        Si     0.900913333333     0.441420000000     0.963405000000     0          
T        Si     0.964013333333     0.442515000000     0.897630000000     0          
T        Si     0.879720000000     0.443290000000     0.882190000000     0          
T        Si     0.969840000000     0.376860000000     0.841100000000     0          
T        Si     0.894346666667     0.307535000000     0.801260000000     0          
T        Si     0.974836666667     0.442465000000     0.784375000000     0          
O        O      0.815500000000     0.334395000000     0.937760000000     0          
O        O      0.833333333333     0.379060000000     0.500000000000     0          
O        O      0.887756666667     0.321705000000     0.500295000000     0          
O        O      0.867533333333     0.409050000000     0.965155000000     0          
O        O      0.898370000000     0.427415000000     0.925325000000     0          
O        O      0.914946666667     0.440045000000     0.873915000000     0          
O        O      0.980200000000     0.414535000000     0.874835000000     0          
O        O      0.842646666667     0.406830000000     0.853760000000     0          
O        O      0.957940000000     0.408485000000     0.804115000000     0          
O        O      0.932200000000     0.341600000000     0.831765000000     0          
O        O      0.888430000000     0.312945000000     0.760800000000     0          
O        O      0.853403333333     0.325355000000     0.797940000000     0          
T        Si     0.815340000000     0.361000000000     0.524120000000     0          
T        Si     0.765753333333     0.441420000000     0.536595000000     0          
T        Si     0.702653333333     0.442515000000     0.602370000000     0          
T        Si     0.786946666667     0.443290000000     0.617810000000     0          
T        Si     0.696826666667     0.376860000000     0.658900000000     0          
T        Si     0.772320000000     0.307535000000     0.698740000000     0          
T        Si     0.691830000000     0.442465000000     0.715625000000     0          
O        O      0.851166666667     0.334395000000     0.562240000000     0          
O        O      0.778910000000     0.321705000000     0.999705000000     0          
O        O      0.799133333333     0.409050000000     0.534845000000     0          
O        O      0.768296666667     0.427415000000     0.574675000000     0          
O        O      0.751720000000     0.440045000000     0.626085000000     0          
O        O      0.686466666667     0.414535000000     0.625165000000     0          
O        O      0.824020000000     0.406830000000     0.646240000000     0          
O        O      0.708726666667     0.408485000000     0.695885000000     0          
O        O      0.734466666667     0.341600000000     0.668235000000     0          
O        O      0.778236666667     0.312945000000     0.739200000000     0          
O        O      0.813263333333     0.325355000000     0.702060000000     0          
T        Si     0.982006666667     0.389000000000     0.524120000000     0          
T        Si     0.932420000000     0.308580000000     0.536595000000     0          
T        Si     0.869320000000     0.307485000000     0.602370000000     0          
T        Si     0.953613333333     0.306710000000     0.617810000000     0          
T        Si     0.863493333333     0.373140000000     0.658900000000     0          
T        Si     0.938986666667     0.442465000000     0.698740000000     0          
T        Si     0.858496666667     0.307535000000     0.715625000000     0          
O        O      0.684500000000     0.415605000000     0.562240000000     0          
O        O      0.666666666667     0.370940000000     0.500000000000     0          
O        O      0.945576666667     0.428295000000     0.999705000000     0          
O        O      0.965800000000     0.340950000000     0.534845000000     0          
O        O      0.934963333333     0.322585000000     0.574675000000     0          
O        O      0.941716666667     0.250000000000     0.536595000000     0          
O        O      0.918386666667     0.309955000000     0.626085000000     0          
O        O      0.854803333333     0.250000000000     0.595595000000     0          
O        O      0.853133333333     0.335465000000     0.625165000000     0          
O        O      0.990686666667     0.343170000000     0.646240000000     0          
O        O      0.969950000000     0.250000000000     0.624210000000     0          
O        O      0.875393333333     0.341515000000     0.695885000000     0          
O        O      0.901133333333     0.408400000000     0.668235000000     0          
O        O      0.929846666667     0.000000000000     0.685440000000     0          
O        O      0.944903333333     0.437055000000     0.739200000000     0          
O        O      0.979930000000     0.424645000000     0.702060000000     0          
O        O      0.857116666667     0.250000000000     0.703845000000     0          
T        Si     0.684660000000     0.389000000000     0.975880000000     0          
T        Si     0.734246666667     0.308580000000     0.963405000000     0          
T        Si     0.797346666667     0.307485000000     0.897630000000     0          
T        Si     0.713053333333     0.306710000000     0.882190000000     0          
T        Si     0.803173333333     0.373140000000     0.841100000000     0          
T        Si     0.727680000000     0.442465000000     0.801260000000     0          
T        Si     0.808170000000     0.307535000000     0.784375000000     0          
O        O      0.982166666667     0.415605000000     0.937760000000     0          
O        O      0.721090000000     0.428295000000     0.500295000000     0          
O        O      0.700866666667     0.340950000000     0.965155000000     0          
O        O      0.731703333333     0.322585000000     0.925325000000     0          
O        O      0.724950000000     0.250000000000     0.963405000000     0          
O        O      0.748280000000     0.309955000000     0.873915000000     0          
O        O      0.811863333333     0.250000000000     0.904405000000     0          
O        O      0.813533333333     0.335465000000     0.874835000000     0          
O        O      0.675980000000     0.343170000000     0.853760000000     0          
O        O      0.696716666667     0.250000000000     0.875790000000     0          
O        O      0.791273333333     0.341515000000     0.804115000000     0          
O        O      0.765533333333     0.408400000000     0.831765000000     0          
O        O      0.736820000000     0.000000000000     0.814560000000     0          
O        O      0.721763333333     0.437055000000     0.760800000000     0          
O        O      0.686736666667     0.424645000000     0.797940000000     0          
O        O      0.809550000000     0.250000000000     0.796155000000     0          
T        Si     0.684660000000     0.111000000000     0.975880000000     0          
T        Si     0.734246666667     0.191420000000     0.963405000000     0          
T        Si     0.797346666667     0.192515000000     0.897630000000     0          
T        Si     0.713053333333     0.193290000000     0.882190000000     0          
T        Si     0.803173333333     0.126860000000     0.841100000000     0          
T        Si     0.727680000000     0.057535000000     0.801260000000     0          
T        Si     0.808170000000     0.192465000000     0.784375000000     0          
O        O      0.982166666667     0.084395000000     0.937760000000     0          
O        O      0.666666666667     0.129060000000     0.500000000000     0          
O        O      0.721090000000     0.071705000000     0.500295000000     0          
O        O      0.700866666667     0.159050000000     0.965155000000     0          
O        O      0.731703333333     0.177415000000     0.925325000000     0          
O        O      0.748280000000     0.190045000000     0.873915000000     0          
O        O      0.813533333333     0.164535000000     0.874835000000     0          
O        O      0.675980000000     0.156830000000     0.853760000000     0          
O        O      0.791273333333     0.158485000000     0.804115000000     0          
O        O      0.765533333333     0.091600000000     0.831765000000     0          
O        O      0.721763333333     0.062945000000     0.760800000000     0          
O        O      0.686736666667     0.075355000000     0.797940000000     0          
T        Si     0.982006666667     0.111000000000     0.524120000000     0          
T        Si     0.932420000000     0.191420000000     0.536595000000     0          
T        Si     0.869320000000     0.192515000000     0.602370000000     0          
T        Si     0.953613333333     0.193290000000     0.617810000000     0          
T        Si     0.863493333333     0.126860000000     0.658900000000     0          
T        Si     0.938986666667     0.057535000000     0.698740000000     0          
T        Si     0.858496666667     0.192465000000     0.715625000000     0          
O        O      0.684500000000     0.084395000000     0.562240000000     0          
O        O      0.945576666667     0.071705000000     0.999705000000     0          
O        O      0.965800000000     0.159050000000     0.534845000000     0          
O        O      0.934963333333     0.177415000000     0.574675000000     0          
O        O      0.918386666667     0.190045000000     0.626085000000     0          
O        O      0.853133333333     0.164535000000     0.625165000000     0          
O        O      0.990686666667     0.156830000000     0.646240000000     0          
O        O      0.875393333333     0.158485000000     0.695885000000     0          
O        O      0.901133333333     0.091600000000     0.668235000000     0          
O        O      0.944903333333     0.062945000000     0.739200000000     0          
O        O      0.979930000000     0.075355000000     0.702060000000     0          
T        Si     0.815340000000     0.639000000000     0.024120000000     0          
T        Si     0.765753333333     0.558580000000     0.036595000000     0          
T        Si     0.702653333333     0.557485000000     0.102370000000     0          
T        Si     0.786946666667     0.556710000000     0.117810000000     0          
T        Si     0.696826666667     0.623140000000     0.158900000000     0          
T        Si     0.772320000000     0.692465000000     0.198740000000     0          
T        Si     0.691830000000     0.557535000000     0.215625000000     0          
O        O      0.851166666667     0.665605000000     0.062240000000     0          
O        O      0.833333333333     0.620940000000     0.000000000000     0          
O        O      0.778910000000     0.678295000000     0.499705000000     0          
O        O      0.799133333333     0.590950000000     0.034845000000     0          
O        O      0.768296666667     0.572585000000     0.074675000000     0          
O        O      0.775050000000     0.500000000000     0.036595000000     0          
O        O      0.751720000000     0.559955000000     0.126085000000     0          
O        O      0.688136666667     0.500000000000     0.095595000000     0          
O        O      0.686466666667     0.585465000000     0.125165000000     0          
O        O      0.824020000000     0.593170000000     0.146240000000     0          
O        O      0.803283333333     0.500000000000     0.124210000000     0          
O        O      0.708726666667     0.591515000000     0.195885000000     0          
O        O      0.734466666667     0.658400000000     0.168235000000     0          
O        O      0.763180000000     0.750000000000     0.185440000000     0          
O        O      0.778236666667     0.687055000000     0.239200000000     0          
O        O      0.813263333333     0.674645000000     0.202060000000     0          
O        O      0.690450000000     0.500000000000     0.203845000000     0          
T        Si     0.851326666667     0.639000000000     0.475880000000     0          
T        Si     0.900913333333     0.558580000000     0.463405000000     0          
T        Si     0.964013333333     0.557485000000     0.397630000000     0          
T        Si     0.879720000000     0.556710000000     0.382190000000     0          
T        Si     0.969840000000     0.623140000000     0.341100000000     0          
T        Si     0.894346666667     0.692465000000     0.301260000000     0          
T        Si     0.974836666667     0.557535000000     0.284375000000     0          
O        O      0.815500000000     0.665605000000     0.437760000000     0          
O        O      0.887756666667     0.678295000000     0.000295000000     0          
O        O      0.867533333333     0.590950000000     0.465155000000     0          
O        O      0.898370000000     0.572585000000     0.425325000000     0          
O        O      0.891616666667     0.500000000000     0.463405000000     0          
O        O      0.914946666667     0.559955000000     0.373915000000     0          
O        O      0.978530000000     0.500000000000     0.404405000000     0          
O        O      0.980200000000     0.585465000000     0.374835000000     0          
O        O      0.842646666667     0.593170000000     0.353760000000     0          
O        O      0.863383333333     0.500000000000     0.375790000000     0          
O        O      0.957940000000     0.591515000000     0.304115000000     0          
O        O      0.932200000000     0.658400000000     0.331765000000     0          
O        O      0.903486666667     0.750000000000     0.314560000000     0          
O        O      0.888430000000     0.687055000000     0.260800000000     0          
O        O      0.853403333333     0.674645000000     0.297940000000     0          
O        O      0.976216666667     0.500000000000     0.296155000000     0          
T        Si     0.851326666667     0.861000000000     0.475880000000     0          
T        Si     0.900913333333     0.941420000000     0.463405000000     0          
T        Si     0.964013333333     0.942515000000     0.397630000000     0          
T        Si     0.879720000000     0.943290000000     0.382190000000     0          
T        Si     0.969840000000     0.876860000000     0.341100000000     0          
T        Si     0.894346666667     0.807535000000     0.301260000000     0          
T        Si     0.974836666667     0.942465000000     0.284375000000     0          
O        O      0.815500000000     0.834395000000     0.437760000000     0          
O        O      0.833333333333     0.879060000000     0.000000000000     0          
O        O      0.887756666667     0.821705000000     0.000295000000     0          
O        O      0.867533333333     0.909050000000     0.465155000000     0          
O        O      0.898370000000     0.927415000000     0.425325000000     0          
O        O      0.914946666667     0.940045000000     0.373915000000     0          
O        O      0.980200000000     0.914535000000     0.374835000000     0          
O        O      0.842646666667     0.906830000000     0.353760000000     0          
O        O      0.957940000000     0.908485000000     0.304115000000     0          
O        O      0.932200000000     0.841600000000     0.331765000000     0          
O        O      0.888430000000     0.812945000000     0.260800000000     0          
O        O      0.853403333333     0.825355000000     0.297940000000     0          
T        Si     0.815340000000     0.861000000000     0.024120000000     0          
T        Si     0.765753333333     0.941420000000     0.036595000000     0          
T        Si     0.702653333333     0.942515000000     0.102370000000     0          
T        Si     0.786946666667     0.943290000000     0.117810000000     0          
T        Si     0.696826666667     0.876860000000     0.158900000000     0          
T        Si     0.772320000000     0.807535000000     0.198740000000     0          
T        Si     0.691830000000     0.942465000000     0.215625000000     0          
O        O      0.851166666667     0.834395000000     0.062240000000     0          
O        O      0.778910000000     0.821705000000     0.499705000000     0          
O        O      0.799133333333     0.909050000000     0.034845000000     0          
O        O      0.768296666667     0.927415000000     0.074675000000     0          
O        O      0.751720000000     0.940045000000     0.126085000000     0          
O        O      0.686466666667     0.914535000000     0.125165000000     0          
O        O      0.824020000000     0.906830000000     0.146240000000     0          
O        O      0.708726666667     0.908485000000     0.195885000000     0          
O        O      0.734466666667     0.841600000000     0.168235000000     0          
O        O      0.778236666667     0.812945000000     0.239200000000     0          
O        O      0.813263333333     0.825355000000     0.202060000000     0          
T        Si     0.982006666667     0.889000000000     0.024120000000     0          
T        Si     0.932420000000     0.808580000000     0.036595000000     0          
T        Si     0.869320000000     0.807485000000     0.102370000000     0          
T        Si     0.953613333333     0.806710000000     0.117810000000     0          
T        Si     0.863493333333     0.873140000000     0.158900000000     0          
T        Si     0.938986666667     0.942465000000     0.198740000000     0          
T        Si     0.858496666667     0.807535000000     0.215625000000     0          
O        O      0.684500000000     0.915605000000     0.062240000000     0          
O        O      0.666666666667     0.870940000000     0.000000000000     0          
O        O      0.945576666667     0.928295000000     0.499705000000     0          
O        O      0.965800000000     0.840950000000     0.034845000000     0          
O        O      0.934963333333     0.822585000000     0.074675000000     0          
O        O      0.941716666667     0.750000000000     0.036595000000     0          
O        O      0.918386666667     0.809955000000     0.126085000000     0          
O        O      0.854803333333     0.750000000000     0.095595000000     0          
O        O      0.853133333333     0.835465000000     0.125165000000     0          
O        O      0.990686666667     0.843170000000     0.146240000000     0          
O        O      0.969950000000     0.750000000000     0.124210000000     0          
O        O      0.875393333333     0.841515000000     0.195885000000     0          
O        O      0.901133333333     0.908400000000     0.168235000000     0          
O        O      0.929846666667     0.500000000000     0.185440000000     0          
O        O      0.944903333333     0.937055000000     0.239200000000     0          
O        O      0.979930000000     0.924645000000     0.202060000000     0          
O        O      0.857116666667     0.750000000000     0.203845000000     0          
T        Si     0.684660000000     0.889000000000     0.475880000000     0          
T        Si     0.734246666667     0.808580000000     0.463405000000     0          
T        Si     0.797346666667     0.807485000000     0.397630000000     0          
T        Si     0.713053333333     0.806710000000     0.382190000000     0          
T        Si     0.803173333333     0.873140000000     0.341100000000     0          
T        Si     0.727680000000     0.942465000000     0.301260000000     0          
T        Si     0.808170000000     0.807535000000     0.284375000000     0          
O        O      0.982166666667     0.915605000000     0.437760000000     0          
O        O      0.721090000000     0.928295000000     0.000295000000     0          
O        O      0.700866666667     0.840950000000     0.465155000000     0          
O        O      0.731703333333     0.822585000000     0.425325000000     0          
O        O      0.724950000000     0.750000000000     0.463405000000     0          
O        O      0.748280000000     0.809955000000     0.373915000000     0          
O        O      0.811863333333     0.750000000000     0.404405000000     0          
O        O      0.813533333333     0.835465000000     0.374835000000     0          
O        O      0.675980000000     0.843170000000     0.353760000000     0          
O        O      0.696716666667     0.750000000000     0.375790000000     0          
O        O      0.791273333333     0.841515000000     0.304115000000     0          
O        O      0.765533333333     0.908400000000     0.331765000000     0          
O        O      0.736820000000     0.500000000000     0.314560000000     0          
O        O      0.721763333333     0.937055000000     0.260800000000     0          
O        O      0.686736666667     0.924645000000     0.297940000000     0          
O        O      0.809550000000     0.750000000000     0.296155000000     0          
T        Si     0.684660000000     0.611000000000     0.475880000000     0          
T        Si     0.734246666667     0.691420000000     0.463405000000     0          
T        Si     0.797346666667     0.692515000000     0.397630000000     0          
T        Si     0.713053333333     0.693290000000     0.382190000000     0          
T        Si     0.803173333333     0.626860000000     0.341100000000     0          
T        Si     0.727680000000     0.557535000000     0.301260000000     0          
T        Si     0.808170000000     0.692465000000     0.284375000000     0          
O        O      0.982166666667     0.584395000000     0.437760000000     0          
O        O      0.666666666667     0.629060000000     0.000000000000     0          
O        O      0.721090000000     0.571705000000     0.000295000000     0          
O        O      0.700866666667     0.659050000000     0.465155000000     0          
O        O      0.731703333333     0.677415000000     0.425325000000     0          
O        O      0.748280000000     0.690045000000     0.373915000000     0          
O        O      0.813533333333     0.664535000000     0.374835000000     0          
O        O      0.675980000000     0.656830000000     0.353760000000     0          
O        O      0.791273333333     0.658485000000     0.304115000000     0          
O        O      0.765533333333     0.591600000000     0.331765000000     0          
O        O      0.721763333333     0.562945000000     0.260800000000     0          
O        O      0.686736666667     0.575355000000     0.297940000000     0          
T        Si     0.982006666667     0.611000000000     0.024120000000     0          
T        Si     0.932420000000     0.691420000000     0.036595000000     0          
T        Si     0.869320000000     0.692515000000     0.102370000000     0          
T        Si     0.953613333333     0.693290000000     0.117810000000     0          
T        Si     0.863493333333     0.626860000000     0.158900000000     0          
T        Si     0.938986666667     0.557535000000     0.198740000000     0          
T        Si     0.858496666667     0.692465000000     0.215625000000     0          
O        O      0.684500000000     0.584395000000     0.062240000000     0          
O        O      0.945576666667     0.571705000000     0.499705000000     0          
O        O      0.965800000000     0.659050000000     0.034845000000     0          
O        O      0.934963333333     0.677415000000     0.074675000000     0          
O        O      0.918386666667     0.690045000000     0.126085000000     0          
O        O      0.853133333333     0.664535000000     0.125165000000     0          
O        O      0.990686666667     0.656830000000     0.146240000000     0          
O        O      0.875393333333     0.658485000000     0.195885000000     0          
O        O      0.901133333333     0.591600000000     0.168235000000     0          
O        O      0.944903333333     0.562945000000     0.239200000000     0          
O        O      0.979930000000     0.575355000000     0.202060000000     0          
T        Si     0.815340000000     0.639000000000     0.524120000000     0          
T        Si     0.765753333333     0.558580000000     0.536595000000     0          
T        Si     0.702653333333     0.557485000000     0.602370000000     0          
T        Si     0.786946666667     0.556710000000     0.617810000000     0          
T        Si     0.696826666667     0.623140000000     0.658900000000     0          
T        Si     0.772320000000     0.692465000000     0.698740000000     0          
T        Si     0.691830000000     0.557535000000     0.715625000000     0          
O        O      0.851166666667     0.665605000000     0.562240000000     0          
O        O      0.833333333333     0.620940000000     0.500000000000     0          
O        O      0.778910000000     0.678295000000     0.999705000000     0          
O        O      0.799133333333     0.590950000000     0.534845000000     0          
O        O      0.768296666667     0.572585000000     0.574675000000     0          
O        O      0.775050000000     0.500000000000     0.536595000000     0          
O        O      0.751720000000     0.559955000000     0.626085000000     0          
O        O      0.688136666667     0.500000000000     0.595595000000     0          
O        O      0.686466666667     0.585465000000     0.625165000000     0          
O        O      0.824020000000     0.593170000000     0.646240000000     0          
O        O      0.803283333333     0.500000000000     0.624210000000     0          
O        O      0.708726666667     0.591515000000     0.695885000000     0          
O        O      0.734466666667     0.658400000000     0.668235000000     0          
O        O      0.763180000000     0.750000000000     0.685440000000     0          
O        O      0.778236666667     0.687055000000     0.739200000000     0          
O        O      0.813263333333     0.674645000000     0.702060000000     0          
O        O      0.690450000000     0.500000000000     0.703845000000     0          
T        Si     0.851326666667     0.639000000000     0.975880000000     0          
T        Si     0.900913333333     0.558580000000     0.963405000000     0          
T        Si     0.964013333333     0.557485000000     0.897630000000     0          
T        Si     0.879720000000     0.556710000000     0.882190000000     0          
T        Si     0.969840000000     0.623140000000     0.841100000000     0          
T        Si     0.894346666667     0.692465000000     0.801260000000     0          
T        Si     0.974836666667     0.557535000000     0.784375000000     0          
O        O      0.815500000000     0.665605000000     0.937760000000     0          
O        O      0.887756666667     0.678295000000     0.500295000000     0          
O        O      0.867533333333     0.590950000000     0.965155000000     0          
O        O      0.898370000000     0.572585000000     0.925325000000     0          
O        O      0.891616666667     0.500000000000     0.963405000000     0          
O        O      0.914946666667     0.559955000000     0.873915000000     0          
O        O      0.978530000000     0.500000000000     0.904405000000     0          
O        O      0.980200000000     0.585465000000     0.874835000000     0          
O        O      0.842646666667     0.593170000000     0.853760000000     0          
O        O      0.863383333333     0.500000000000     0.875790000000     0          
O        O      0.957940000000     0.591515000000     0.804115000000     0          
O        O      0.932200000000     0.658400000000     0.831765000000     0          
O        O      0.903486666667     0.750000000000     0.814560000000     0          
O        O      0.888430000000     0.687055000000     0.760800000000     0          
O        O      0.853403333333     0.674645000000     0.797940000000     0          
O        O      0.976216666667     0.500000000000     0.796155000000     0          
T        Si     0.851326666667     0.861000000000     0.975880000000     0          
T        Si     0.900913333333     0.941420000000     0.963405000000     0          
T        Si     0.964013333333     0.942515000000     0.897630000000     0          
T        Si     0.879720000000     0.943290000000     0.882190000000     0          
T        Si     0.969840000000     0.876860000000     0.841100000000     0          
T        Si     0.894346666667     0.807535000000     0.801260000000     0          
T        Si     0.974836666667     0.942465000000     0.784375000000     0          
O        O      0.815500000000     0.834395000000     0.937760000000     0          
O        O      0.833333333333     0.879060000000     0.500000000000     0          
O        O      0.887756666667     0.821705000000     0.500295000000     0          
O        O      0.867533333333     0.909050000000     0.965155000000     0          
O        O      0.898370000000     0.927415000000     0.925325000000     0          
O        O      0.914946666667     0.940045000000     0.873915000000     0          
O        O      0.980200000000     0.914535000000     0.874835000000     0          
O        O      0.842646666667     0.906830000000     0.853760000000     0          
O        O      0.957940000000     0.908485000000     0.804115000000     0          
O        O      0.932200000000     0.841600000000     0.831765000000     0          
O        O      0.888430000000     0.812945000000     0.760800000000     0          
O        O      0.853403333333     0.825355000000     0.797940000000     0          
T        Si     0.815340000000     0.861000000000     0.524120000000     0          
T        Si     0.765753333333     0.941420000000     0.536595000000     0          
T        Si     0.702653333333     0.942515000000     0.602370000000     0          
T        Si     0.786946666667     0.943290000000     0.617810000000     0          
T        Si     0.696826666667     0.876860000000     0.658900000000     0          
T        Si     0.772320000000     0.807535000000     0.698740000000     0          
T        Si     0.691830000000     0.942465000000     0.715625000000     0          
O        O      0.851166666667     0.834395000000     0.562240000000     0          
O        O      0.778910000000     0.821705000000     0.999705000000     0          
O        O      0.799133333333     0.909050000000     0.534845000000     0          
O        O      0.768296666667     0.927415000000     0.574675000000     0          
O        O      0.751720000000     0.940045000000     0.626085000000     0          
O        O      0.686466666667     0.914535000000     0.625165000000     0          
O        O      0.824020000000     0.906830000000     0.646240000000     0          
O        O      0.708726666667     0.908485000000     0.695885000000     0          
O        O      0.734466666667     0.841600000000     0.668235000000     0          
O        O      0.778236666667     0.812945000000     0.739200000000     0          
O        O      0.813263333333     0.825355000000     0.702060000000     0          
T        Si     0.982006666667     0.889000000000     0.524120000000     0          
T        Si     0.932420000000     0.808580000000     0.536595000000     0          
T        Si     0.869320000000     0.807485000000     0.602370000000     0          
T        Si     0.953613333333     0.806710000000     0.617810000000     0          
T        Si     0.863493333333     0.873140000000     0.658900000000     0          
T        Si     0.938986666667     0.942465000000     0.698740000000     0          
T        Si     0.858496666667     0.807535000000     0.715625000000     0          
O        O      0.684500000000     0.915605000000     0.562240000000     0          
O        O      0.666666666667     0.870940000000     0.500000000000     0          
O        O      0.945576666667     0.928295000000     0.999705000000     0          
O        O      0.965800000000     0.840950000000     0.534845000000     0          
O        O      0.934963333333     0.822585000000     0.574675000000     0          
O        O      0.941716666667     0.750000000000     0.536595000000     0          
O        O      0.918386666667     0.809955000000     0.626085000000     0          
O        O      0.854803333333     0.750000000000     0.595595000000     0          
O        O      0.853133333333     0.835465000000     0.625165000000     0          
O        O      0.990686666667     0.843170000000     0.646240000000     0          
O        O      0.969950000000     0.750000000000     0.624210000000     0          
O        O      0.875393333333     0.841515000000     0.695885000000     0          
O        O      0.901133333333     0.908400000000     0.668235000000     0          
O        O      0.929846666667     0.500000000000     0.685440000000     0          
O        O      0.944903333333     0.937055000000     0.739200000000     0          
O        O      0.979930000000     0.924645000000     0.702060000000     0          
O        O      0.857116666667     0.750000000000     0.703845000000     0          
T        Si     0.684660000000     0.889000000000     0.975880000000     0          
T        Si     0.734246666667     0.808580000000     0.963405000000     0          
T        Si     0.797346666667     0.807485000000     0.897630000000     0          
T        Si     0.713053333333     0.806710000000     0.882190000000     0          
T        Si     0.803173333333     0.873140000000     0.841100000000     0          
T        Si     0.727680000000     0.942465000000     0.801260000000     0          
T        Si     0.808170000000     0.807535000000     0.784375000000     0          
O        O      0.982166666667     0.915605000000     0.937760000000     0          
O        O      0.721090000000     0.928295000000     0.500295000000     0          
O        O      0.700866666667     0.840950000000     0.965155000000     0          
O        O      0.731703333333     0.822585000000     0.925325000000     0          
O        O      0.724950000000     0.750000000000     0.963405000000     0          
O        O      0.748280000000     0.809955000000     0.873915000000     0          
O        O      0.811863333333     0.750000000000     0.904405000000     0          
O        O      0.813533333333     0.835465000000     0.874835000000     0          
O        O      0.675980000000     0.843170000000     0.853760000000     0          
O        O      0.696716666667     0.750000000000     0.875790000000     0          
O        O      0.791273333333     0.841515000000     0.804115000000     0          
O        O      0.765533333333     0.908400000000     0.831765000000     0          
O        O      0.736820000000     0.500000000000     0.814560000000     0          
O        O      0.721763333333     0.937055000000     0.760800000000     0          
O        O      0.686736666667     0.924645000000     0.797940000000     0          
O        O      0.809550000000     0.750000000000     0.796155000000     0          
T        Si     0.684660000000     0.611000000000     0.975880000000     0          
T        Si     0.734246666667     0.691420000000     0.963405000000     0          
T        Si     0.797346666667     0.692515000000     0.897630000000     0          
T        Si     0.713053333333     0.693290000000     0.882190000000     0          
T        Si     0.803173333333     0.626860000000     0.841100000000     0          
T        Si     0.727680000000     0.557535000000     0.801260000000     0          
T        Si     0.808170000000     0.692465000000     0.784375000000     0          
O        O      0.982166666667     0.584395000000     0.937760000000     0          
O        O      0.666666666667     0.629060000000     0.500000000000     0          
O        O      0.721090000000     0.571705000000     0.500295000000     0          
O        O      0.700866666667     0.659050000000     0.965155000000     0          
O        O      0.731703333333     0.677415000000     0.925325000000     0          
O        O      0.748280000000     0.690045000000     0.873915000000     0          
O        O      0.813533333333     0.664535000000     0.874835000000     0          
O        O      0.675980000000     0.656830000000     0.853760000000     0          
O        O      0.791273333333     0.658485000000     0.804115000000     0          
O        O      0.765533333333     0.591600000000     0.831765000000     0          
O        O      0.721763333333     0.562945000000     0.760800000000     0          
O        O      0.686736666667     0.575355000000     0.797940000000     0          
T        Si     0.982006666667     0.611000000000     0.524120000000     0          
T        Si     0.932420000000     0.691420000000     0.536595000000     0          
T        Si     0.869320000000     0.692515000000     0.602370000000     0          
T        Si     0.953613333333     0.693290000000     0.617810000000     0          
T        Si     0.863493333333     0.626860000000     0.658900000000     0          
T        Si     0.938986666667     0.557535000000     0.698740000000     0          
T        Si     0.858496666667     0.692465000000     0.715625000000     0          
O        O      0.684500000000     0.584395000000     0.562240000000     0          
O        O      0.945576666667     0.571705000000     0.999705000000     0          
O        O      0.965800000000     0.659050000000     0.534845000000     0          
O        O      0.934963333333     0.677415000000     0.574675000000     0          
O        O      0.918386666667     0.690045000000     0.626085000000     0          
O        O      0.853133333333     0.664535000000     0.625165000000     0          
O        O      0.990686666667     0.656830000000     0.646240000000     0          
O        O      0.875393333333     0.658485000000     0.695885000000     0          
O        O      0.901133333333     0.591600000000     0.668235000000     0          
O        O      0.944903333333     0.562945000000     0.739200000000     0          
O        O      0.979930000000     0.575355000000     0.702060000000     0          


