data_zeolite

_audit_creation_method RASPA-1.0
_audit_creation_date 2021-6-7
_audit_author_name ''

_cell_length_a    26.878
_cell_length_b    26.878
_cell_length_c    43.72
_cell_angle_alpha 90
_cell_angle_beta  90
_cell_angle_gamma 90
_cell_volume      31584.5

_symmetry_cell_setting          tetragonal
_symmetry_space_group_name_Hall 'P 1'
_symmetry_space_group_name_H-M  'P 1'
_symmetry_Int_Tables_number     1

_symmetry_equiv_pos_as_xyz 'x,y,z'

loop_
_atom_site_label
_atom_site_type_symbol
_atom_site_fract_x
_atom_site_fract_y
_atom_site_fract_z
_atom_site_charge
O        O      0.156950000000     0.324950000000     0.167150000000     0          
O        O      0.188300000000     0.342150000000     0.223050000000     0          
O        O      0.320600000000     0.250000000000     0.203350000000     0          
O        O      0.250000000000     0.307550000000     0.181500000000     0          
O        O      0.396200000000     0.250000000000     0.146700000000     0          
O        O      0.062650000000     0.317850000000     0.181950000000     0          
O        O      0.410500000000     0.339500000000     0.125000000000     0          
O        O      0.093100000000     0.344150000000     0.236750000000     0          
O        O      0.428600000000     0.250000000000     0.224900000000     0          
O        O      0.000000000000     0.316650000000     0.227950000000     0          
T        Si     0.193650000000     0.306100000000     0.193850000000     0          
T        Si     0.057000000000     0.307150000000     0.218050000000     0          
T        Si     0.102750000000     0.191850000000     0.155250000000     0          
T        Si     0.351500000000     0.148500000000     0.250000000000     0          
O        O      0.324950000000     0.343050000000     0.332850000000     0          
O        O      0.342150000000     0.311700000000     0.276950000000     0          
O        O      0.250000000000     0.179400000000     0.296650000000     0          
O        O      0.307550000000     0.250000000000     0.318500000000     0          
O        O      0.250000000000     0.103800000000     0.353300000000     0          
O        O      0.317850000000     0.437350000000     0.318050000000     0          
O        O      0.339500000000     0.089500000000     0.375000000000     0          
O        O      0.344150000000     0.406900000000     0.263250000000     0          
O        O      0.250000000000     0.071400000000     0.275100000000     0          
O        O      0.316650000000     0.000000000000     0.272050000000     0          
T        Si     0.306100000000     0.306350000000     0.306150000000     0          
T        Si     0.307150000000     0.443000000000     0.281950000000     0          
T        Si     0.191850000000     0.397250000000     0.344750000000     0          
T        Si     0.148500000000     0.148500000000     0.250000000000     0          
O        O      0.343050000000     0.175050000000     0.167150000000     0          
O        O      0.311700000000     0.157850000000     0.223050000000     0          
O        O      0.179400000000     0.250000000000     0.203350000000     0          
O        O      0.250000000000     0.192450000000     0.181500000000     0          
O        O      0.103800000000     0.250000000000     0.146700000000     0          
O        O      0.437350000000     0.182150000000     0.181950000000     0          
O        O      0.089500000000     0.160500000000     0.125000000000     0          
O        O      0.406900000000     0.155850000000     0.236750000000     0          
O        O      0.071400000000     0.250000000000     0.224900000000     0          
O        O      0.000000000000     0.183350000000     0.227950000000     0          
T        Si     0.306350000000     0.193900000000     0.193850000000     0          
T        Si     0.443000000000     0.192850000000     0.218050000000     0          
T        Si     0.397250000000     0.308150000000     0.155250000000     0          
T        Si     0.148500000000     0.351500000000     0.250000000000     0          
O        O      0.175050000000     0.156950000000     0.332850000000     0          
O        O      0.157850000000     0.188300000000     0.276950000000     0          
O        O      0.250000000000     0.320600000000     0.296650000000     0          
O        O      0.192450000000     0.250000000000     0.318500000000     0          
O        O      0.250000000000     0.396200000000     0.353300000000     0          
O        O      0.182150000000     0.062650000000     0.318050000000     0          
O        O      0.160500000000     0.410500000000     0.375000000000     0          
O        O      0.155850000000     0.093100000000     0.263250000000     0          
O        O      0.250000000000     0.428600000000     0.275100000000     0          
O        O      0.183350000000     0.000000000000     0.272050000000     0          
T        Si     0.193900000000     0.193650000000     0.306150000000     0          
T        Si     0.192850000000     0.057000000000     0.281950000000     0          
T        Si     0.308150000000     0.102750000000     0.344750000000     0          
T        Si     0.351500000000     0.351500000000     0.250000000000     0          
O        O      0.343050000000     0.324950000000     0.167150000000     0          
O        O      0.311700000000     0.342150000000     0.223050000000     0          
O        O      0.437350000000     0.317850000000     0.181950000000     0          
O        O      0.089500000000     0.339500000000     0.125000000000     0          
O        O      0.406900000000     0.344150000000     0.236750000000     0          
T        Si     0.306350000000     0.306100000000     0.193850000000     0          
T        Si     0.443000000000     0.307150000000     0.218050000000     0          
T        Si     0.397250000000     0.191850000000     0.155250000000     0          
O        O      0.324950000000     0.156950000000     0.332850000000     0          
O        O      0.342150000000     0.188300000000     0.276950000000     0          
O        O      0.317850000000     0.062650000000     0.318050000000     0          
O        O      0.339500000000     0.410500000000     0.375000000000     0          
O        O      0.344150000000     0.093100000000     0.263250000000     0          
T        Si     0.306100000000     0.193650000000     0.306150000000     0          
T        Si     0.307150000000     0.057000000000     0.281950000000     0          
T        Si     0.191850000000     0.102750000000     0.344750000000     0          
O        O      0.156950000000     0.175050000000     0.167150000000     0          
O        O      0.188300000000     0.157850000000     0.223050000000     0          
O        O      0.062650000000     0.182150000000     0.181950000000     0          
O        O      0.410500000000     0.160500000000     0.125000000000     0          
O        O      0.093100000000     0.155850000000     0.236750000000     0          
T        Si     0.193650000000     0.193900000000     0.193850000000     0          
T        Si     0.057000000000     0.192850000000     0.218050000000     0          
T        Si     0.102750000000     0.308150000000     0.155250000000     0          
O        O      0.175050000000     0.343050000000     0.332850000000     0          
O        O      0.157850000000     0.311700000000     0.276950000000     0          
O        O      0.182150000000     0.437350000000     0.318050000000     0          
O        O      0.160500000000     0.089500000000     0.375000000000     0          
O        O      0.155850000000     0.406900000000     0.263250000000     0          
T        Si     0.193900000000     0.306350000000     0.306150000000     0          
T        Si     0.192850000000     0.443000000000     0.281950000000     0          
T        Si     0.308150000000     0.397250000000     0.344750000000     0          
O        O      0.406950000000     0.074950000000     0.417150000000     0          
O        O      0.438300000000     0.092150000000     0.473050000000     0          
O        O      0.070600000000     0.000000000000     0.453350000000     0          
O        O      0.000000000000     0.057550000000     0.431500000000     0          
O        O      0.146200000000     0.000000000000     0.396700000000     0          
O        O      0.312650000000     0.067850000000     0.431950000000     0          
O        O      0.343100000000     0.094150000000     0.486750000000     0          
O        O      0.178600000000     0.000000000000     0.474900000000     0          
O        O      0.250000000000     0.066650000000     0.477950000000     0          
T        Si     0.443650000000     0.056100000000     0.443850000000     0          
T        Si     0.307000000000     0.057150000000     0.468050000000     0          
T        Si     0.352750000000     0.441850000000     0.405250000000     0          
T        Si     0.101500000000     0.398500000000     0.000000000000     0          
O        O      0.074950000000     0.093050000000     0.082850000000     0          
O        O      0.092150000000     0.061700000000     0.026950000000     0          
O        O      0.000000000000     0.429400000000     0.046650000000     0          
O        O      0.057550000000     0.000000000000     0.068500000000     0          
O        O      0.000000000000     0.353800000000     0.103300000000     0          
O        O      0.067850000000     0.187350000000     0.068050000000     0          
O        O      0.094150000000     0.156900000000     0.013250000000     0          
O        O      0.000000000000     0.321400000000     0.025100000000     0          
O        O      0.066650000000     0.250000000000     0.022050000000     0          
T        Si     0.056100000000     0.056350000000     0.056150000000     0          
T        Si     0.057150000000     0.193000000000     0.031950000000     0          
T        Si     0.441850000000     0.147250000000     0.094750000000     0          
T        Si     0.398500000000     0.398500000000     0.000000000000     0          
O        O      0.093050000000     0.425050000000     0.417150000000     0          
O        O      0.061700000000     0.407850000000     0.473050000000     0          
O        O      0.429400000000     0.000000000000     0.453350000000     0          
O        O      0.000000000000     0.442450000000     0.431500000000     0          
O        O      0.353800000000     0.000000000000     0.396700000000     0          
O        O      0.187350000000     0.432150000000     0.431950000000     0          
O        O      0.156900000000     0.405850000000     0.486750000000     0          
O        O      0.321400000000     0.000000000000     0.474900000000     0          
O        O      0.250000000000     0.433350000000     0.477950000000     0          
T        Si     0.056350000000     0.443900000000     0.443850000000     0          
T        Si     0.193000000000     0.442850000000     0.468050000000     0          
T        Si     0.147250000000     0.058150000000     0.405250000000     0          
T        Si     0.398500000000     0.101500000000     0.000000000000     0          
O        O      0.425050000000     0.406950000000     0.082850000000     0          
O        O      0.407850000000     0.438300000000     0.026950000000     0          
O        O      0.000000000000     0.070600000000     0.046650000000     0          
O        O      0.442450000000     0.000000000000     0.068500000000     0          
O        O      0.000000000000     0.146200000000     0.103300000000     0          
O        O      0.432150000000     0.312650000000     0.068050000000     0          
O        O      0.405850000000     0.343100000000     0.013250000000     0          
O        O      0.000000000000     0.178600000000     0.025100000000     0          
O        O      0.433350000000     0.250000000000     0.022050000000     0          
T        Si     0.443900000000     0.443650000000     0.056150000000     0          
T        Si     0.442850000000     0.307000000000     0.031950000000     0          
T        Si     0.058150000000     0.352750000000     0.094750000000     0          
T        Si     0.101500000000     0.101500000000     0.000000000000     0          
O        O      0.093050000000     0.074950000000     0.417150000000     0          
O        O      0.061700000000     0.092150000000     0.473050000000     0          
O        O      0.187350000000     0.067850000000     0.431950000000     0          
O        O      0.156900000000     0.094150000000     0.486750000000     0          
T        Si     0.056350000000     0.056100000000     0.443850000000     0          
T        Si     0.193000000000     0.057150000000     0.468050000000     0          
T        Si     0.147250000000     0.441850000000     0.405250000000     0          
O        O      0.074950000000     0.406950000000     0.082850000000     0          
O        O      0.092150000000     0.438300000000     0.026950000000     0          
O        O      0.067850000000     0.312650000000     0.068050000000     0          
O        O      0.094150000000     0.343100000000     0.013250000000     0          
T        Si     0.056100000000     0.443650000000     0.056150000000     0          
T        Si     0.057150000000     0.307000000000     0.031950000000     0          
T        Si     0.441850000000     0.352750000000     0.094750000000     0          
O        O      0.406950000000     0.425050000000     0.417150000000     0          
O        O      0.438300000000     0.407850000000     0.473050000000     0          
O        O      0.312650000000     0.432150000000     0.431950000000     0          
O        O      0.343100000000     0.405850000000     0.486750000000     0          
T        Si     0.443650000000     0.443900000000     0.443850000000     0          
T        Si     0.307000000000     0.442850000000     0.468050000000     0          
T        Si     0.352750000000     0.058150000000     0.405250000000     0          
O        O      0.425050000000     0.093050000000     0.082850000000     0          
O        O      0.407850000000     0.061700000000     0.026950000000     0          
O        O      0.432150000000     0.187350000000     0.068050000000     0          
O        O      0.405850000000     0.156900000000     0.013250000000     0          
T        Si     0.443900000000     0.056350000000     0.056150000000     0          
T        Si     0.442850000000     0.193000000000     0.031950000000     0          
T        Si     0.058150000000     0.147250000000     0.094750000000     0          
O        O      0.156950000000     0.324950000000     0.667150000000     0          
O        O      0.188300000000     0.342150000000     0.723050000000     0          
O        O      0.320600000000     0.250000000000     0.703350000000     0          
O        O      0.250000000000     0.307550000000     0.681500000000     0          
O        O      0.396200000000     0.250000000000     0.646700000000     0          
O        O      0.062650000000     0.317850000000     0.681950000000     0          
O        O      0.410500000000     0.339500000000     0.625000000000     0          
O        O      0.093100000000     0.344150000000     0.736750000000     0          
O        O      0.428600000000     0.250000000000     0.724900000000     0          
O        O      0.000000000000     0.316650000000     0.727950000000     0          
T        Si     0.193650000000     0.306100000000     0.693850000000     0          
T        Si     0.057000000000     0.307150000000     0.718050000000     0          
T        Si     0.102750000000     0.191850000000     0.655250000000     0          
T        Si     0.351500000000     0.148500000000     0.750000000000     0          
O        O      0.324950000000     0.343050000000     0.832850000000     0          
O        O      0.342150000000     0.311700000000     0.776950000000     0          
O        O      0.250000000000     0.179400000000     0.796650000000     0          
O        O      0.307550000000     0.250000000000     0.818500000000     0          
O        O      0.250000000000     0.103800000000     0.853300000000     0          
O        O      0.317850000000     0.437350000000     0.818050000000     0          
O        O      0.339500000000     0.089500000000     0.875000000000     0          
O        O      0.344150000000     0.406900000000     0.763250000000     0          
O        O      0.250000000000     0.071400000000     0.775100000000     0          
O        O      0.316650000000     0.000000000000     0.772050000000     0          
T        Si     0.306100000000     0.306350000000     0.806150000000     0          
T        Si     0.307150000000     0.443000000000     0.781950000000     0          
T        Si     0.191850000000     0.397250000000     0.844750000000     0          
T        Si     0.148500000000     0.148500000000     0.750000000000     0          
O        O      0.343050000000     0.175050000000     0.667150000000     0          
O        O      0.311700000000     0.157850000000     0.723050000000     0          
O        O      0.179400000000     0.250000000000     0.703350000000     0          
O        O      0.250000000000     0.192450000000     0.681500000000     0          
O        O      0.103800000000     0.250000000000     0.646700000000     0          
O        O      0.437350000000     0.182150000000     0.681950000000     0          
O        O      0.089500000000     0.160500000000     0.625000000000     0          
O        O      0.406900000000     0.155850000000     0.736750000000     0          
O        O      0.071400000000     0.250000000000     0.724900000000     0          
O        O      0.000000000000     0.183350000000     0.727950000000     0          
T        Si     0.306350000000     0.193900000000     0.693850000000     0          
T        Si     0.443000000000     0.192850000000     0.718050000000     0          
T        Si     0.397250000000     0.308150000000     0.655250000000     0          
T        Si     0.148500000000     0.351500000000     0.750000000000     0          
O        O      0.175050000000     0.156950000000     0.832850000000     0          
O        O      0.157850000000     0.188300000000     0.776950000000     0          
O        O      0.250000000000     0.320600000000     0.796650000000     0          
O        O      0.192450000000     0.250000000000     0.818500000000     0          
O        O      0.250000000000     0.396200000000     0.853300000000     0          
O        O      0.182150000000     0.062650000000     0.818050000000     0          
O        O      0.160500000000     0.410500000000     0.875000000000     0          
O        O      0.155850000000     0.093100000000     0.763250000000     0          
O        O      0.250000000000     0.428600000000     0.775100000000     0          
O        O      0.183350000000     0.000000000000     0.772050000000     0          
T        Si     0.193900000000     0.193650000000     0.806150000000     0          
T        Si     0.192850000000     0.057000000000     0.781950000000     0          
T        Si     0.308150000000     0.102750000000     0.844750000000     0          
T        Si     0.351500000000     0.351500000000     0.750000000000     0          
O        O      0.343050000000     0.324950000000     0.667150000000     0          
O        O      0.311700000000     0.342150000000     0.723050000000     0          
O        O      0.437350000000     0.317850000000     0.681950000000     0          
O        O      0.089500000000     0.339500000000     0.625000000000     0          
O        O      0.406900000000     0.344150000000     0.736750000000     0          
T        Si     0.306350000000     0.306100000000     0.693850000000     0          
T        Si     0.443000000000     0.307150000000     0.718050000000     0          
T        Si     0.397250000000     0.191850000000     0.655250000000     0          
O        O      0.324950000000     0.156950000000     0.832850000000     0          
O        O      0.342150000000     0.188300000000     0.776950000000     0          
O        O      0.317850000000     0.062650000000     0.818050000000     0          
O        O      0.339500000000     0.410500000000     0.875000000000     0          
O        O      0.344150000000     0.093100000000     0.763250000000     0          
T        Si     0.306100000000     0.193650000000     0.806150000000     0          
T        Si     0.307150000000     0.057000000000     0.781950000000     0          
T        Si     0.191850000000     0.102750000000     0.844750000000     0          
O        O      0.156950000000     0.175050000000     0.667150000000     0          
O        O      0.188300000000     0.157850000000     0.723050000000     0          
O        O      0.062650000000     0.182150000000     0.681950000000     0          
O        O      0.410500000000     0.160500000000     0.625000000000     0          
O        O      0.093100000000     0.155850000000     0.736750000000     0          
T        Si     0.193650000000     0.193900000000     0.693850000000     0          
T        Si     0.057000000000     0.192850000000     0.718050000000     0          
T        Si     0.102750000000     0.308150000000     0.655250000000     0          
O        O      0.175050000000     0.343050000000     0.832850000000     0          
O        O      0.157850000000     0.311700000000     0.776950000000     0          
O        O      0.182150000000     0.437350000000     0.818050000000     0          
O        O      0.160500000000     0.089500000000     0.875000000000     0          
O        O      0.155850000000     0.406900000000     0.763250000000     0          
T        Si     0.193900000000     0.306350000000     0.806150000000     0          
T        Si     0.192850000000     0.443000000000     0.781950000000     0          
T        Si     0.308150000000     0.397250000000     0.844750000000     0          
O        O      0.406950000000     0.074950000000     0.917150000000     0          
O        O      0.438300000000     0.092150000000     0.973050000000     0          
O        O      0.070600000000     0.000000000000     0.953350000000     0          
O        O      0.000000000000     0.057550000000     0.931500000000     0          
O        O      0.146200000000     0.000000000000     0.896700000000     0          
O        O      0.312650000000     0.067850000000     0.931950000000     0          
O        O      0.343100000000     0.094150000000     0.986750000000     0          
O        O      0.178600000000     0.000000000000     0.974900000000     0          
O        O      0.250000000000     0.066650000000     0.977950000000     0          
T        Si     0.443650000000     0.056100000000     0.943850000000     0          
T        Si     0.307000000000     0.057150000000     0.968050000000     0          
T        Si     0.352750000000     0.441850000000     0.905250000000     0          
T        Si     0.101500000000     0.398500000000     0.500000000000     0          
O        O      0.074950000000     0.093050000000     0.582850000000     0          
O        O      0.092150000000     0.061700000000     0.526950000000     0          
O        O      0.000000000000     0.429400000000     0.546650000000     0          
O        O      0.057550000000     0.000000000000     0.568500000000     0          
O        O      0.000000000000     0.353800000000     0.603300000000     0          
O        O      0.067850000000     0.187350000000     0.568050000000     0          
O        O      0.094150000000     0.156900000000     0.513250000000     0          
O        O      0.000000000000     0.321400000000     0.525100000000     0          
O        O      0.066650000000     0.250000000000     0.522050000000     0          
T        Si     0.056100000000     0.056350000000     0.556150000000     0          
T        Si     0.057150000000     0.193000000000     0.531950000000     0          
T        Si     0.441850000000     0.147250000000     0.594750000000     0          
T        Si     0.398500000000     0.398500000000     0.500000000000     0          
O        O      0.093050000000     0.425050000000     0.917150000000     0          
O        O      0.061700000000     0.407850000000     0.973050000000     0          
O        O      0.429400000000     0.000000000000     0.953350000000     0          
O        O      0.000000000000     0.442450000000     0.931500000000     0          
O        O      0.353800000000     0.000000000000     0.896700000000     0          
O        O      0.187350000000     0.432150000000     0.931950000000     0          
O        O      0.156900000000     0.405850000000     0.986750000000     0          
O        O      0.321400000000     0.000000000000     0.974900000000     0          
O        O      0.250000000000     0.433350000000     0.977950000000     0          
T        Si     0.056350000000     0.443900000000     0.943850000000     0          
T        Si     0.193000000000     0.442850000000     0.968050000000     0          
T        Si     0.147250000000     0.058150000000     0.905250000000     0          
T        Si     0.398500000000     0.101500000000     0.500000000000     0          
O        O      0.425050000000     0.406950000000     0.582850000000     0          
O        O      0.407850000000     0.438300000000     0.526950000000     0          
O        O      0.000000000000     0.070600000000     0.546650000000     0          
O        O      0.442450000000     0.000000000000     0.568500000000     0          
O        O      0.000000000000     0.146200000000     0.603300000000     0          
O        O      0.432150000000     0.312650000000     0.568050000000     0          
O        O      0.405850000000     0.343100000000     0.513250000000     0          
O        O      0.000000000000     0.178600000000     0.525100000000     0          
O        O      0.433350000000     0.250000000000     0.522050000000     0          
T        Si     0.443900000000     0.443650000000     0.556150000000     0          
T        Si     0.442850000000     0.307000000000     0.531950000000     0          
T        Si     0.058150000000     0.352750000000     0.594750000000     0          
T        Si     0.101500000000     0.101500000000     0.500000000000     0          
O        O      0.093050000000     0.074950000000     0.917150000000     0          
O        O      0.061700000000     0.092150000000     0.973050000000     0          
O        O      0.187350000000     0.067850000000     0.931950000000     0          
O        O      0.156900000000     0.094150000000     0.986750000000     0          
T        Si     0.056350000000     0.056100000000     0.943850000000     0          
T        Si     0.193000000000     0.057150000000     0.968050000000     0          
T        Si     0.147250000000     0.441850000000     0.905250000000     0          
O        O      0.074950000000     0.406950000000     0.582850000000     0          
O        O      0.092150000000     0.438300000000     0.526950000000     0          
O        O      0.067850000000     0.312650000000     0.568050000000     0          
O        O      0.094150000000     0.343100000000     0.513250000000     0          
T        Si     0.056100000000     0.443650000000     0.556150000000     0          
T        Si     0.057150000000     0.307000000000     0.531950000000     0          
T        Si     0.441850000000     0.352750000000     0.594750000000     0          
O        O      0.406950000000     0.425050000000     0.917150000000     0          
O        O      0.438300000000     0.407850000000     0.973050000000     0          
O        O      0.312650000000     0.432150000000     0.931950000000     0          
O        O      0.343100000000     0.405850000000     0.986750000000     0          
T        Si     0.443650000000     0.443900000000     0.943850000000     0          
T        Si     0.307000000000     0.442850000000     0.968050000000     0          
T        Si     0.352750000000     0.058150000000     0.905250000000     0          
O        O      0.425050000000     0.093050000000     0.582850000000     0          
O        O      0.407850000000     0.061700000000     0.526950000000     0          
O        O      0.432150000000     0.187350000000     0.568050000000     0          
O        O      0.405850000000     0.156900000000     0.513250000000     0          
T        Si     0.443900000000     0.056350000000     0.556150000000     0          
T        Si     0.442850000000     0.193000000000     0.531950000000     0          
T        Si     0.058150000000     0.147250000000     0.594750000000     0          
O        O      0.156950000000     0.824950000000     0.167150000000     0          
O        O      0.188300000000     0.842150000000     0.223050000000     0          
O        O      0.320600000000     0.750000000000     0.203350000000     0          
O        O      0.250000000000     0.807550000000     0.181500000000     0          
O        O      0.396200000000     0.750000000000     0.146700000000     0          
O        O      0.062650000000     0.817850000000     0.181950000000     0          
O        O      0.410500000000     0.839500000000     0.125000000000     0          
O        O      0.093100000000     0.844150000000     0.236750000000     0          
O        O      0.428600000000     0.750000000000     0.224900000000     0          
O        O      0.000000000000     0.816650000000     0.227950000000     0          
T        Si     0.193650000000     0.806100000000     0.193850000000     0          
T        Si     0.057000000000     0.807150000000     0.218050000000     0          
T        Si     0.102750000000     0.691850000000     0.155250000000     0          
T        Si     0.351500000000     0.648500000000     0.250000000000     0          
O        O      0.324950000000     0.843050000000     0.332850000000     0          
O        O      0.342150000000     0.811700000000     0.276950000000     0          
O        O      0.250000000000     0.679400000000     0.296650000000     0          
O        O      0.307550000000     0.750000000000     0.318500000000     0          
O        O      0.250000000000     0.603800000000     0.353300000000     0          
O        O      0.317850000000     0.937350000000     0.318050000000     0          
O        O      0.339500000000     0.589500000000     0.375000000000     0          
O        O      0.344150000000     0.906900000000     0.263250000000     0          
O        O      0.250000000000     0.571400000000     0.275100000000     0          
O        O      0.316650000000     0.500000000000     0.272050000000     0          
T        Si     0.306100000000     0.806350000000     0.306150000000     0          
T        Si     0.307150000000     0.943000000000     0.281950000000     0          
T        Si     0.191850000000     0.897250000000     0.344750000000     0          
T        Si     0.148500000000     0.648500000000     0.250000000000     0          
O        O      0.343050000000     0.675050000000     0.167150000000     0          
O        O      0.311700000000     0.657850000000     0.223050000000     0          
O        O      0.179400000000     0.750000000000     0.203350000000     0          
O        O      0.250000000000     0.692450000000     0.181500000000     0          
O        O      0.103800000000     0.750000000000     0.146700000000     0          
O        O      0.437350000000     0.682150000000     0.181950000000     0          
O        O      0.089500000000     0.660500000000     0.125000000000     0          
O        O      0.406900000000     0.655850000000     0.236750000000     0          
O        O      0.071400000000     0.750000000000     0.224900000000     0          
O        O      0.000000000000     0.683350000000     0.227950000000     0          
T        Si     0.306350000000     0.693900000000     0.193850000000     0          
T        Si     0.443000000000     0.692850000000     0.218050000000     0          
T        Si     0.397250000000     0.808150000000     0.155250000000     0          
T        Si     0.148500000000     0.851500000000     0.250000000000     0          
O        O      0.175050000000     0.656950000000     0.332850000000     0          
O        O      0.157850000000     0.688300000000     0.276950000000     0          
O        O      0.250000000000     0.820600000000     0.296650000000     0          
O        O      0.192450000000     0.750000000000     0.318500000000     0          
O        O      0.250000000000     0.896200000000     0.353300000000     0          
O        O      0.182150000000     0.562650000000     0.318050000000     0          
O        O      0.160500000000     0.910500000000     0.375000000000     0          
O        O      0.155850000000     0.593100000000     0.263250000000     0          
O        O      0.250000000000     0.928600000000     0.275100000000     0          
O        O      0.183350000000     0.500000000000     0.272050000000     0          
T        Si     0.193900000000     0.693650000000     0.306150000000     0          
T        Si     0.192850000000     0.557000000000     0.281950000000     0          
T        Si     0.308150000000     0.602750000000     0.344750000000     0          
T        Si     0.351500000000     0.851500000000     0.250000000000     0          
O        O      0.343050000000     0.824950000000     0.167150000000     0          
O        O      0.311700000000     0.842150000000     0.223050000000     0          
O        O      0.437350000000     0.817850000000     0.181950000000     0          
O        O      0.089500000000     0.839500000000     0.125000000000     0          
O        O      0.406900000000     0.844150000000     0.236750000000     0          
T        Si     0.306350000000     0.806100000000     0.193850000000     0          
T        Si     0.443000000000     0.807150000000     0.218050000000     0          
T        Si     0.397250000000     0.691850000000     0.155250000000     0          
O        O      0.324950000000     0.656950000000     0.332850000000     0          
O        O      0.342150000000     0.688300000000     0.276950000000     0          
O        O      0.317850000000     0.562650000000     0.318050000000     0          
O        O      0.339500000000     0.910500000000     0.375000000000     0          
O        O      0.344150000000     0.593100000000     0.263250000000     0          
T        Si     0.306100000000     0.693650000000     0.306150000000     0          
T        Si     0.307150000000     0.557000000000     0.281950000000     0          
T        Si     0.191850000000     0.602750000000     0.344750000000     0          
O        O      0.156950000000     0.675050000000     0.167150000000     0          
O        O      0.188300000000     0.657850000000     0.223050000000     0          
O        O      0.062650000000     0.682150000000     0.181950000000     0          
O        O      0.410500000000     0.660500000000     0.125000000000     0          
O        O      0.093100000000     0.655850000000     0.236750000000     0          
T        Si     0.193650000000     0.693900000000     0.193850000000     0          
T        Si     0.057000000000     0.692850000000     0.218050000000     0          
T        Si     0.102750000000     0.808150000000     0.155250000000     0          
O        O      0.175050000000     0.843050000000     0.332850000000     0          
O        O      0.157850000000     0.811700000000     0.276950000000     0          
O        O      0.182150000000     0.937350000000     0.318050000000     0          
O        O      0.160500000000     0.589500000000     0.375000000000     0          
O        O      0.155850000000     0.906900000000     0.263250000000     0          
T        Si     0.193900000000     0.806350000000     0.306150000000     0          
T        Si     0.192850000000     0.943000000000     0.281950000000     0          
T        Si     0.308150000000     0.897250000000     0.344750000000     0          
O        O      0.406950000000     0.574950000000     0.417150000000     0          
O        O      0.438300000000     0.592150000000     0.473050000000     0          
O        O      0.070600000000     0.500000000000     0.453350000000     0          
O        O      0.000000000000     0.557550000000     0.431500000000     0          
O        O      0.146200000000     0.500000000000     0.396700000000     0          
O        O      0.312650000000     0.567850000000     0.431950000000     0          
O        O      0.343100000000     0.594150000000     0.486750000000     0          
O        O      0.178600000000     0.500000000000     0.474900000000     0          
O        O      0.250000000000     0.566650000000     0.477950000000     0          
T        Si     0.443650000000     0.556100000000     0.443850000000     0          
T        Si     0.307000000000     0.557150000000     0.468050000000     0          
T        Si     0.352750000000     0.941850000000     0.405250000000     0          
T        Si     0.101500000000     0.898500000000     0.000000000000     0          
O        O      0.074950000000     0.593050000000     0.082850000000     0          
O        O      0.092150000000     0.561700000000     0.026950000000     0          
O        O      0.000000000000     0.929400000000     0.046650000000     0          
O        O      0.057550000000     0.500000000000     0.068500000000     0          
O        O      0.000000000000     0.853800000000     0.103300000000     0          
O        O      0.067850000000     0.687350000000     0.068050000000     0          
O        O      0.094150000000     0.656900000000     0.013250000000     0          
O        O      0.000000000000     0.821400000000     0.025100000000     0          
O        O      0.066650000000     0.750000000000     0.022050000000     0          
T        Si     0.056100000000     0.556350000000     0.056150000000     0          
T        Si     0.057150000000     0.693000000000     0.031950000000     0          
T        Si     0.441850000000     0.647250000000     0.094750000000     0          
T        Si     0.398500000000     0.898500000000     0.000000000000     0          
O        O      0.093050000000     0.925050000000     0.417150000000     0          
O        O      0.061700000000     0.907850000000     0.473050000000     0          
O        O      0.429400000000     0.500000000000     0.453350000000     0          
O        O      0.000000000000     0.942450000000     0.431500000000     0          
O        O      0.353800000000     0.500000000000     0.396700000000     0          
O        O      0.187350000000     0.932150000000     0.431950000000     0          
O        O      0.156900000000     0.905850000000     0.486750000000     0          
O        O      0.321400000000     0.500000000000     0.474900000000     0          
O        O      0.250000000000     0.933350000000     0.477950000000     0          
T        Si     0.056350000000     0.943900000000     0.443850000000     0          
T        Si     0.193000000000     0.942850000000     0.468050000000     0          
T        Si     0.147250000000     0.558150000000     0.405250000000     0          
T        Si     0.398500000000     0.601500000000     0.000000000000     0          
O        O      0.425050000000     0.906950000000     0.082850000000     0          
O        O      0.407850000000     0.938300000000     0.026950000000     0          
O        O      0.000000000000     0.570600000000     0.046650000000     0          
O        O      0.442450000000     0.500000000000     0.068500000000     0          
O        O      0.000000000000     0.646200000000     0.103300000000     0          
O        O      0.432150000000     0.812650000000     0.068050000000     0          
O        O      0.405850000000     0.843100000000     0.013250000000     0          
O        O      0.000000000000     0.678600000000     0.025100000000     0          
O        O      0.433350000000     0.750000000000     0.022050000000     0          
T        Si     0.443900000000     0.943650000000     0.056150000000     0          
T        Si     0.442850000000     0.807000000000     0.031950000000     0          
T        Si     0.058150000000     0.852750000000     0.094750000000     0          
T        Si     0.101500000000     0.601500000000     0.000000000000     0          
O        O      0.093050000000     0.574950000000     0.417150000000     0          
O        O      0.061700000000     0.592150000000     0.473050000000     0          
O        O      0.187350000000     0.567850000000     0.431950000000     0          
O        O      0.156900000000     0.594150000000     0.486750000000     0          
T        Si     0.056350000000     0.556100000000     0.443850000000     0          
T        Si     0.193000000000     0.557150000000     0.468050000000     0          
T        Si     0.147250000000     0.941850000000     0.405250000000     0          
O        O      0.074950000000     0.906950000000     0.082850000000     0          
O        O      0.092150000000     0.938300000000     0.026950000000     0          
O        O      0.067850000000     0.812650000000     0.068050000000     0          
O        O      0.094150000000     0.843100000000     0.013250000000     0          
T        Si     0.056100000000     0.943650000000     0.056150000000     0          
T        Si     0.057150000000     0.807000000000     0.031950000000     0          
T        Si     0.441850000000     0.852750000000     0.094750000000     0          
O        O      0.406950000000     0.925050000000     0.417150000000     0          
O        O      0.438300000000     0.907850000000     0.473050000000     0          
O        O      0.312650000000     0.932150000000     0.431950000000     0          
O        O      0.343100000000     0.905850000000     0.486750000000     0          
T        Si     0.443650000000     0.943900000000     0.443850000000     0          
T        Si     0.307000000000     0.942850000000     0.468050000000     0          
T        Si     0.352750000000     0.558150000000     0.405250000000     0          
O        O      0.425050000000     0.593050000000     0.082850000000     0          
O        O      0.407850000000     0.561700000000     0.026950000000     0          
O        O      0.432150000000     0.687350000000     0.068050000000     0          
O        O      0.405850000000     0.656900000000     0.013250000000     0          
T        Si     0.443900000000     0.556350000000     0.056150000000     0          
T        Si     0.442850000000     0.693000000000     0.031950000000     0          
T        Si     0.058150000000     0.647250000000     0.094750000000     0          
O        O      0.156950000000     0.824950000000     0.667150000000     0          
O        O      0.188300000000     0.842150000000     0.723050000000     0          
O        O      0.320600000000     0.750000000000     0.703350000000     0          
O        O      0.250000000000     0.807550000000     0.681500000000     0          
O        O      0.396200000000     0.750000000000     0.646700000000     0          
O        O      0.062650000000     0.817850000000     0.681950000000     0          
O        O      0.410500000000     0.839500000000     0.625000000000     0          
O        O      0.093100000000     0.844150000000     0.736750000000     0          
O        O      0.428600000000     0.750000000000     0.724900000000     0          
O        O      0.000000000000     0.816650000000     0.727950000000     0          
T        Si     0.193650000000     0.806100000000     0.693850000000     0          
T        Si     0.057000000000     0.807150000000     0.718050000000     0          
T        Si     0.102750000000     0.691850000000     0.655250000000     0          
T        Si     0.351500000000     0.648500000000     0.750000000000     0          
O        O      0.324950000000     0.843050000000     0.832850000000     0          
O        O      0.342150000000     0.811700000000     0.776950000000     0          
O        O      0.250000000000     0.679400000000     0.796650000000     0          
O        O      0.307550000000     0.750000000000     0.818500000000     0          
O        O      0.250000000000     0.603800000000     0.853300000000     0          
O        O      0.317850000000     0.937350000000     0.818050000000     0          
O        O      0.339500000000     0.589500000000     0.875000000000     0          
O        O      0.344150000000     0.906900000000     0.763250000000     0          
O        O      0.250000000000     0.571400000000     0.775100000000     0          
O        O      0.316650000000     0.500000000000     0.772050000000     0          
T        Si     0.306100000000     0.806350000000     0.806150000000     0          
T        Si     0.307150000000     0.943000000000     0.781950000000     0          
T        Si     0.191850000000     0.897250000000     0.844750000000     0          
T        Si     0.148500000000     0.648500000000     0.750000000000     0          
O        O      0.343050000000     0.675050000000     0.667150000000     0          
O        O      0.311700000000     0.657850000000     0.723050000000     0          
O        O      0.179400000000     0.750000000000     0.703350000000     0          
O        O      0.250000000000     0.692450000000     0.681500000000     0          
O        O      0.103800000000     0.750000000000     0.646700000000     0          
O        O      0.437350000000     0.682150000000     0.681950000000     0          
O        O      0.089500000000     0.660500000000     0.625000000000     0          
O        O      0.406900000000     0.655850000000     0.736750000000     0          
O        O      0.071400000000     0.750000000000     0.724900000000     0          
O        O      0.000000000000     0.683350000000     0.727950000000     0          
T        Si     0.306350000000     0.693900000000     0.693850000000     0          
T        Si     0.443000000000     0.692850000000     0.718050000000     0          
T        Si     0.397250000000     0.808150000000     0.655250000000     0          
T        Si     0.148500000000     0.851500000000     0.750000000000     0          
O        O      0.175050000000     0.656950000000     0.832850000000     0          
O        O      0.157850000000     0.688300000000     0.776950000000     0          
O        O      0.250000000000     0.820600000000     0.796650000000     0          
O        O      0.192450000000     0.750000000000     0.818500000000     0          
O        O      0.250000000000     0.896200000000     0.853300000000     0          
O        O      0.182150000000     0.562650000000     0.818050000000     0          
O        O      0.160500000000     0.910500000000     0.875000000000     0          
O        O      0.155850000000     0.593100000000     0.763250000000     0          
O        O      0.250000000000     0.928600000000     0.775100000000     0          
O        O      0.183350000000     0.500000000000     0.772050000000     0          
T        Si     0.193900000000     0.693650000000     0.806150000000     0          
T        Si     0.192850000000     0.557000000000     0.781950000000     0          
T        Si     0.308150000000     0.602750000000     0.844750000000     0          
T        Si     0.351500000000     0.851500000000     0.750000000000     0          
O        O      0.343050000000     0.824950000000     0.667150000000     0          
O        O      0.311700000000     0.842150000000     0.723050000000     0          
O        O      0.437350000000     0.817850000000     0.681950000000     0          
O        O      0.089500000000     0.839500000000     0.625000000000     0          
O        O      0.406900000000     0.844150000000     0.736750000000     0          
T        Si     0.306350000000     0.806100000000     0.693850000000     0          
T        Si     0.443000000000     0.807150000000     0.718050000000     0          
T        Si     0.397250000000     0.691850000000     0.655250000000     0          
O        O      0.324950000000     0.656950000000     0.832850000000     0          
O        O      0.342150000000     0.688300000000     0.776950000000     0          
O        O      0.317850000000     0.562650000000     0.818050000000     0          
O        O      0.339500000000     0.910500000000     0.875000000000     0          
O        O      0.344150000000     0.593100000000     0.763250000000     0          
T        Si     0.306100000000     0.693650000000     0.806150000000     0          
T        Si     0.307150000000     0.557000000000     0.781950000000     0          
T        Si     0.191850000000     0.602750000000     0.844750000000     0          
O        O      0.156950000000     0.675050000000     0.667150000000     0          
O        O      0.188300000000     0.657850000000     0.723050000000     0          
O        O      0.062650000000     0.682150000000     0.681950000000     0          
O        O      0.410500000000     0.660500000000     0.625000000000     0          
O        O      0.093100000000     0.655850000000     0.736750000000     0          
T        Si     0.193650000000     0.693900000000     0.693850000000     0          
T        Si     0.057000000000     0.692850000000     0.718050000000     0          
T        Si     0.102750000000     0.808150000000     0.655250000000     0          
O        O      0.175050000000     0.843050000000     0.832850000000     0          
O        O      0.157850000000     0.811700000000     0.776950000000     0          
O        O      0.182150000000     0.937350000000     0.818050000000     0          
O        O      0.160500000000     0.589500000000     0.875000000000     0          
O        O      0.155850000000     0.906900000000     0.763250000000     0          
T        Si     0.193900000000     0.806350000000     0.806150000000     0          
T        Si     0.192850000000     0.943000000000     0.781950000000     0          
T        Si     0.308150000000     0.897250000000     0.844750000000     0          
O        O      0.406950000000     0.574950000000     0.917150000000     0          
O        O      0.438300000000     0.592150000000     0.973050000000     0          
O        O      0.070600000000     0.500000000000     0.953350000000     0          
O        O      0.000000000000     0.557550000000     0.931500000000     0          
O        O      0.146200000000     0.500000000000     0.896700000000     0          
O        O      0.312650000000     0.567850000000     0.931950000000     0          
O        O      0.343100000000     0.594150000000     0.986750000000     0          
O        O      0.178600000000     0.500000000000     0.974900000000     0          
O        O      0.250000000000     0.566650000000     0.977950000000     0          
T        Si     0.443650000000     0.556100000000     0.943850000000     0          
T        Si     0.307000000000     0.557150000000     0.968050000000     0          
T        Si     0.352750000000     0.941850000000     0.905250000000     0          
T        Si     0.101500000000     0.898500000000     0.500000000000     0          
O        O      0.074950000000     0.593050000000     0.582850000000     0          
O        O      0.092150000000     0.561700000000     0.526950000000     0          
O        O      0.000000000000     0.929400000000     0.546650000000     0          
O        O      0.057550000000     0.500000000000     0.568500000000     0          
O        O      0.000000000000     0.853800000000     0.603300000000     0          
O        O      0.067850000000     0.687350000000     0.568050000000     0          
O        O      0.094150000000     0.656900000000     0.513250000000     0          
O        O      0.000000000000     0.821400000000     0.525100000000     0          
O        O      0.066650000000     0.750000000000     0.522050000000     0          
T        Si     0.056100000000     0.556350000000     0.556150000000     0          
T        Si     0.057150000000     0.693000000000     0.531950000000     0          
T        Si     0.441850000000     0.647250000000     0.594750000000     0          
T        Si     0.398500000000     0.898500000000     0.500000000000     0          
O        O      0.093050000000     0.925050000000     0.917150000000     0          
O        O      0.061700000000     0.907850000000     0.973050000000     0          
O        O      0.429400000000     0.500000000000     0.953350000000     0          
O        O      0.000000000000     0.942450000000     0.931500000000     0          
O        O      0.353800000000     0.500000000000     0.896700000000     0          
O        O      0.187350000000     0.932150000000     0.931950000000     0          
O        O      0.156900000000     0.905850000000     0.986750000000     0          
O        O      0.321400000000     0.500000000000     0.974900000000     0          
O        O      0.250000000000     0.933350000000     0.977950000000     0          
T        Si     0.056350000000     0.943900000000     0.943850000000     0          
T        Si     0.193000000000     0.942850000000     0.968050000000     0          
T        Si     0.147250000000     0.558150000000     0.905250000000     0          
T        Si     0.398500000000     0.601500000000     0.500000000000     0          
O        O      0.425050000000     0.906950000000     0.582850000000     0          
O        O      0.407850000000     0.938300000000     0.526950000000     0          
O        O      0.000000000000     0.570600000000     0.546650000000     0          
O        O      0.442450000000     0.500000000000     0.568500000000     0          
O        O      0.000000000000     0.646200000000     0.603300000000     0          
O        O      0.432150000000     0.812650000000     0.568050000000     0          
O        O      0.405850000000     0.843100000000     0.513250000000     0          
O        O      0.000000000000     0.678600000000     0.525100000000     0          
O        O      0.433350000000     0.750000000000     0.522050000000     0          
T        Si     0.443900000000     0.943650000000     0.556150000000     0          
T        Si     0.442850000000     0.807000000000     0.531950000000     0          
T        Si     0.058150000000     0.852750000000     0.594750000000     0          
T        Si     0.101500000000     0.601500000000     0.500000000000     0          
O        O      0.093050000000     0.574950000000     0.917150000000     0          
O        O      0.061700000000     0.592150000000     0.973050000000     0          
O        O      0.187350000000     0.567850000000     0.931950000000     0          
O        O      0.156900000000     0.594150000000     0.986750000000     0          
T        Si     0.056350000000     0.556100000000     0.943850000000     0          
T        Si     0.193000000000     0.557150000000     0.968050000000     0          
T        Si     0.147250000000     0.941850000000     0.905250000000     0          
O        O      0.074950000000     0.906950000000     0.582850000000     0          
O        O      0.092150000000     0.938300000000     0.526950000000     0          
O        O      0.067850000000     0.812650000000     0.568050000000     0          
O        O      0.094150000000     0.843100000000     0.513250000000     0          
T        Si     0.056100000000     0.943650000000     0.556150000000     0          
T        Si     0.057150000000     0.807000000000     0.531950000000     0          
T        Si     0.441850000000     0.852750000000     0.594750000000     0          
O        O      0.406950000000     0.925050000000     0.917150000000     0          
O        O      0.438300000000     0.907850000000     0.973050000000     0          
O        O      0.312650000000     0.932150000000     0.931950000000     0          
O        O      0.343100000000     0.905850000000     0.986750000000     0          
T        Si     0.443650000000     0.943900000000     0.943850000000     0          
T        Si     0.307000000000     0.942850000000     0.968050000000     0          
T        Si     0.352750000000     0.558150000000     0.905250000000     0          
O        O      0.425050000000     0.593050000000     0.582850000000     0          
O        O      0.407850000000     0.561700000000     0.526950000000     0          
O        O      0.432150000000     0.687350000000     0.568050000000     0          
O        O      0.405850000000     0.656900000000     0.513250000000     0          
T        Si     0.443900000000     0.556350000000     0.556150000000     0          
T        Si     0.442850000000     0.693000000000     0.531950000000     0          
T        Si     0.058150000000     0.647250000000     0.594750000000     0          
O        O      0.656950000000     0.324950000000     0.167150000000     0          
O        O      0.688300000000     0.342150000000     0.223050000000     0          
O        O      0.820600000000     0.250000000000     0.203350000000     0          
O        O      0.750000000000     0.307550000000     0.181500000000     0          
O        O      0.896200000000     0.250000000000     0.146700000000     0          
O        O      0.562650000000     0.317850000000     0.181950000000     0          
O        O      0.910500000000     0.339500000000     0.125000000000     0          
O        O      0.593100000000     0.344150000000     0.236750000000     0          
O        O      0.928600000000     0.250000000000     0.224900000000     0          
O        O      0.500000000000     0.316650000000     0.227950000000     0          
T        Si     0.693650000000     0.306100000000     0.193850000000     0          
T        Si     0.557000000000     0.307150000000     0.218050000000     0          
T        Si     0.602750000000     0.191850000000     0.155250000000     0          
T        Si     0.851500000000     0.148500000000     0.250000000000     0          
O        O      0.824950000000     0.343050000000     0.332850000000     0          
O        O      0.842150000000     0.311700000000     0.276950000000     0          
O        O      0.750000000000     0.179400000000     0.296650000000     0          
O        O      0.807550000000     0.250000000000     0.318500000000     0          
O        O      0.750000000000     0.103800000000     0.353300000000     0          
O        O      0.817850000000     0.437350000000     0.318050000000     0          
O        O      0.839500000000     0.089500000000     0.375000000000     0          
O        O      0.844150000000     0.406900000000     0.263250000000     0          
O        O      0.750000000000     0.071400000000     0.275100000000     0          
O        O      0.816650000000     0.000000000000     0.272050000000     0          
T        Si     0.806100000000     0.306350000000     0.306150000000     0          
T        Si     0.807150000000     0.443000000000     0.281950000000     0          
T        Si     0.691850000000     0.397250000000     0.344750000000     0          
T        Si     0.648500000000     0.148500000000     0.250000000000     0          
O        O      0.843050000000     0.175050000000     0.167150000000     0          
O        O      0.811700000000     0.157850000000     0.223050000000     0          
O        O      0.679400000000     0.250000000000     0.203350000000     0          
O        O      0.750000000000     0.192450000000     0.181500000000     0          
O        O      0.603800000000     0.250000000000     0.146700000000     0          
O        O      0.937350000000     0.182150000000     0.181950000000     0          
O        O      0.589500000000     0.160500000000     0.125000000000     0          
O        O      0.906900000000     0.155850000000     0.236750000000     0          
O        O      0.571400000000     0.250000000000     0.224900000000     0          
O        O      0.500000000000     0.183350000000     0.227950000000     0          
T        Si     0.806350000000     0.193900000000     0.193850000000     0          
T        Si     0.943000000000     0.192850000000     0.218050000000     0          
T        Si     0.897250000000     0.308150000000     0.155250000000     0          
T        Si     0.648500000000     0.351500000000     0.250000000000     0          
O        O      0.675050000000     0.156950000000     0.332850000000     0          
O        O      0.657850000000     0.188300000000     0.276950000000     0          
O        O      0.750000000000     0.320600000000     0.296650000000     0          
O        O      0.692450000000     0.250000000000     0.318500000000     0          
O        O      0.750000000000     0.396200000000     0.353300000000     0          
O        O      0.682150000000     0.062650000000     0.318050000000     0          
O        O      0.660500000000     0.410500000000     0.375000000000     0          
O        O      0.655850000000     0.093100000000     0.263250000000     0          
O        O      0.750000000000     0.428600000000     0.275100000000     0          
O        O      0.683350000000     0.000000000000     0.272050000000     0          
T        Si     0.693900000000     0.193650000000     0.306150000000     0          
T        Si     0.692850000000     0.057000000000     0.281950000000     0          
T        Si     0.808150000000     0.102750000000     0.344750000000     0          
T        Si     0.851500000000     0.351500000000     0.250000000000     0          
O        O      0.843050000000     0.324950000000     0.167150000000     0          
O        O      0.811700000000     0.342150000000     0.223050000000     0          
O        O      0.937350000000     0.317850000000     0.181950000000     0          
O        O      0.589500000000     0.339500000000     0.125000000000     0          
O        O      0.906900000000     0.344150000000     0.236750000000     0          
T        Si     0.806350000000     0.306100000000     0.193850000000     0          
T        Si     0.943000000000     0.307150000000     0.218050000000     0          
T        Si     0.897250000000     0.191850000000     0.155250000000     0          
O        O      0.824950000000     0.156950000000     0.332850000000     0          
O        O      0.842150000000     0.188300000000     0.276950000000     0          
O        O      0.817850000000     0.062650000000     0.318050000000     0          
O        O      0.839500000000     0.410500000000     0.375000000000     0          
O        O      0.844150000000     0.093100000000     0.263250000000     0          
T        Si     0.806100000000     0.193650000000     0.306150000000     0          
T        Si     0.807150000000     0.057000000000     0.281950000000     0          
T        Si     0.691850000000     0.102750000000     0.344750000000     0          
O        O      0.656950000000     0.175050000000     0.167150000000     0          
O        O      0.688300000000     0.157850000000     0.223050000000     0          
O        O      0.562650000000     0.182150000000     0.181950000000     0          
O        O      0.910500000000     0.160500000000     0.125000000000     0          
O        O      0.593100000000     0.155850000000     0.236750000000     0          
T        Si     0.693650000000     0.193900000000     0.193850000000     0          
T        Si     0.557000000000     0.192850000000     0.218050000000     0          
T        Si     0.602750000000     0.308150000000     0.155250000000     0          
O        O      0.675050000000     0.343050000000     0.332850000000     0          
O        O      0.657850000000     0.311700000000     0.276950000000     0          
O        O      0.682150000000     0.437350000000     0.318050000000     0          
O        O      0.660500000000     0.089500000000     0.375000000000     0          
O        O      0.655850000000     0.406900000000     0.263250000000     0          
T        Si     0.693900000000     0.306350000000     0.306150000000     0          
T        Si     0.692850000000     0.443000000000     0.281950000000     0          
T        Si     0.808150000000     0.397250000000     0.344750000000     0          
O        O      0.906950000000     0.074950000000     0.417150000000     0          
O        O      0.938300000000     0.092150000000     0.473050000000     0          
O        O      0.570600000000     0.000000000000     0.453350000000     0          
O        O      0.500000000000     0.057550000000     0.431500000000     0          
O        O      0.646200000000     0.000000000000     0.396700000000     0          
O        O      0.812650000000     0.067850000000     0.431950000000     0          
O        O      0.843100000000     0.094150000000     0.486750000000     0          
O        O      0.678600000000     0.000000000000     0.474900000000     0          
O        O      0.750000000000     0.066650000000     0.477950000000     0          
T        Si     0.943650000000     0.056100000000     0.443850000000     0          
T        Si     0.807000000000     0.057150000000     0.468050000000     0          
T        Si     0.852750000000     0.441850000000     0.405250000000     0          
T        Si     0.601500000000     0.398500000000     0.000000000000     0          
O        O      0.574950000000     0.093050000000     0.082850000000     0          
O        O      0.592150000000     0.061700000000     0.026950000000     0          
O        O      0.500000000000     0.429400000000     0.046650000000     0          
O        O      0.557550000000     0.000000000000     0.068500000000     0          
O        O      0.500000000000     0.353800000000     0.103300000000     0          
O        O      0.567850000000     0.187350000000     0.068050000000     0          
O        O      0.594150000000     0.156900000000     0.013250000000     0          
O        O      0.500000000000     0.321400000000     0.025100000000     0          
O        O      0.566650000000     0.250000000000     0.022050000000     0          
T        Si     0.556100000000     0.056350000000     0.056150000000     0          
T        Si     0.557150000000     0.193000000000     0.031950000000     0          
T        Si     0.941850000000     0.147250000000     0.094750000000     0          
T        Si     0.898500000000     0.398500000000     0.000000000000     0          
O        O      0.593050000000     0.425050000000     0.417150000000     0          
O        O      0.561700000000     0.407850000000     0.473050000000     0          
O        O      0.929400000000     0.000000000000     0.453350000000     0          
O        O      0.500000000000     0.442450000000     0.431500000000     0          
O        O      0.853800000000     0.000000000000     0.396700000000     0          
O        O      0.687350000000     0.432150000000     0.431950000000     0          
O        O      0.656900000000     0.405850000000     0.486750000000     0          
O        O      0.821400000000     0.000000000000     0.474900000000     0          
O        O      0.750000000000     0.433350000000     0.477950000000     0          
T        Si     0.556350000000     0.443900000000     0.443850000000     0          
T        Si     0.693000000000     0.442850000000     0.468050000000     0          
T        Si     0.647250000000     0.058150000000     0.405250000000     0          
T        Si     0.898500000000     0.101500000000     0.000000000000     0          
O        O      0.925050000000     0.406950000000     0.082850000000     0          
O        O      0.907850000000     0.438300000000     0.026950000000     0          
O        O      0.500000000000     0.070600000000     0.046650000000     0          
O        O      0.942450000000     0.000000000000     0.068500000000     0          
O        O      0.500000000000     0.146200000000     0.103300000000     0          
O        O      0.932150000000     0.312650000000     0.068050000000     0          
O        O      0.905850000000     0.343100000000     0.013250000000     0          
O        O      0.500000000000     0.178600000000     0.025100000000     0          
O        O      0.933350000000     0.250000000000     0.022050000000     0          
T        Si     0.943900000000     0.443650000000     0.056150000000     0          
T        Si     0.942850000000     0.307000000000     0.031950000000     0          
T        Si     0.558150000000     0.352750000000     0.094750000000     0          
T        Si     0.601500000000     0.101500000000     0.000000000000     0          
O        O      0.593050000000     0.074950000000     0.417150000000     0          
O        O      0.561700000000     0.092150000000     0.473050000000     0          
O        O      0.687350000000     0.067850000000     0.431950000000     0          
O        O      0.656900000000     0.094150000000     0.486750000000     0          
T        Si     0.556350000000     0.056100000000     0.443850000000     0          
T        Si     0.693000000000     0.057150000000     0.468050000000     0          
T        Si     0.647250000000     0.441850000000     0.405250000000     0          
O        O      0.574950000000     0.406950000000     0.082850000000     0          
O        O      0.592150000000     0.438300000000     0.026950000000     0          
O        O      0.567850000000     0.312650000000     0.068050000000     0          
O        O      0.594150000000     0.343100000000     0.013250000000     0          
T        Si     0.556100000000     0.443650000000     0.056150000000     0          
T        Si     0.557150000000     0.307000000000     0.031950000000     0          
T        Si     0.941850000000     0.352750000000     0.094750000000     0          
O        O      0.906950000000     0.425050000000     0.417150000000     0          
O        O      0.938300000000     0.407850000000     0.473050000000     0          
O        O      0.812650000000     0.432150000000     0.431950000000     0          
O        O      0.843100000000     0.405850000000     0.486750000000     0          
T        Si     0.943650000000     0.443900000000     0.443850000000     0          
T        Si     0.807000000000     0.442850000000     0.468050000000     0          
T        Si     0.852750000000     0.058150000000     0.405250000000     0          
O        O      0.925050000000     0.093050000000     0.082850000000     0          
O        O      0.907850000000     0.061700000000     0.026950000000     0          
O        O      0.932150000000     0.187350000000     0.068050000000     0          
O        O      0.905850000000     0.156900000000     0.013250000000     0          
T        Si     0.943900000000     0.056350000000     0.056150000000     0          
T        Si     0.942850000000     0.193000000000     0.031950000000     0          
T        Si     0.558150000000     0.147250000000     0.094750000000     0          
O        O      0.656950000000     0.324950000000     0.667150000000     0          
O        O      0.688300000000     0.342150000000     0.723050000000     0          
O        O      0.820600000000     0.250000000000     0.703350000000     0          
O        O      0.750000000000     0.307550000000     0.681500000000     0          
O        O      0.896200000000     0.250000000000     0.646700000000     0          
O        O      0.562650000000     0.317850000000     0.681950000000     0          
O        O      0.910500000000     0.339500000000     0.625000000000     0          
O        O      0.593100000000     0.344150000000     0.736750000000     0          
O        O      0.928600000000     0.250000000000     0.724900000000     0          
O        O      0.500000000000     0.316650000000     0.727950000000     0          
T        Si     0.693650000000     0.306100000000     0.693850000000     0          
T        Si     0.557000000000     0.307150000000     0.718050000000     0          
T        Si     0.602750000000     0.191850000000     0.655250000000     0          
T        Si     0.851500000000     0.148500000000     0.750000000000     0          
O        O      0.824950000000     0.343050000000     0.832850000000     0          
O        O      0.842150000000     0.311700000000     0.776950000000     0          
O        O      0.750000000000     0.179400000000     0.796650000000     0          
O        O      0.807550000000     0.250000000000     0.818500000000     0          
O        O      0.750000000000     0.103800000000     0.853300000000     0          
O        O      0.817850000000     0.437350000000     0.818050000000     0          
O        O      0.839500000000     0.089500000000     0.875000000000     0          
O        O      0.844150000000     0.406900000000     0.763250000000     0          
O        O      0.750000000000     0.071400000000     0.775100000000     0          
O        O      0.816650000000     0.000000000000     0.772050000000     0          
T        Si     0.806100000000     0.306350000000     0.806150000000     0          
T        Si     0.807150000000     0.443000000000     0.781950000000     0          
T        Si     0.691850000000     0.397250000000     0.844750000000     0          
T        Si     0.648500000000     0.148500000000     0.750000000000     0          
O        O      0.843050000000     0.175050000000     0.667150000000     0          
O        O      0.811700000000     0.157850000000     0.723050000000     0          
O        O      0.679400000000     0.250000000000     0.703350000000     0          
O        O      0.750000000000     0.192450000000     0.681500000000     0          
O        O      0.603800000000     0.250000000000     0.646700000000     0          
O        O      0.937350000000     0.182150000000     0.681950000000     0          
O        O      0.589500000000     0.160500000000     0.625000000000     0          
O        O      0.906900000000     0.155850000000     0.736750000000     0          
O        O      0.571400000000     0.250000000000     0.724900000000     0          
O        O      0.500000000000     0.183350000000     0.727950000000     0          
T        Si     0.806350000000     0.193900000000     0.693850000000     0          
T        Si     0.943000000000     0.192850000000     0.718050000000     0          
T        Si     0.897250000000     0.308150000000     0.655250000000     0          
T        Si     0.648500000000     0.351500000000     0.750000000000     0          
O        O      0.675050000000     0.156950000000     0.832850000000     0          
O        O      0.657850000000     0.188300000000     0.776950000000     0          
O        O      0.750000000000     0.320600000000     0.796650000000     0          
O        O      0.692450000000     0.250000000000     0.818500000000     0          
O        O      0.750000000000     0.396200000000     0.853300000000     0          
O        O      0.682150000000     0.062650000000     0.818050000000     0          
O        O      0.660500000000     0.410500000000     0.875000000000     0          
O        O      0.655850000000     0.093100000000     0.763250000000     0          
O        O      0.750000000000     0.428600000000     0.775100000000     0          
O        O      0.683350000000     0.000000000000     0.772050000000     0          
T        Si     0.693900000000     0.193650000000     0.806150000000     0          
T        Si     0.692850000000     0.057000000000     0.781950000000     0          
T        Si     0.808150000000     0.102750000000     0.844750000000     0          
T        Si     0.851500000000     0.351500000000     0.750000000000     0          
O        O      0.843050000000     0.324950000000     0.667150000000     0          
O        O      0.811700000000     0.342150000000     0.723050000000     0          
O        O      0.937350000000     0.317850000000     0.681950000000     0          
O        O      0.589500000000     0.339500000000     0.625000000000     0          
O        O      0.906900000000     0.344150000000     0.736750000000     0          
T        Si     0.806350000000     0.306100000000     0.693850000000     0          
T        Si     0.943000000000     0.307150000000     0.718050000000     0          
T        Si     0.897250000000     0.191850000000     0.655250000000     0          
O        O      0.824950000000     0.156950000000     0.832850000000     0          
O        O      0.842150000000     0.188300000000     0.776950000000     0          
O        O      0.817850000000     0.062650000000     0.818050000000     0          
O        O      0.839500000000     0.410500000000     0.875000000000     0          
O        O      0.844150000000     0.093100000000     0.763250000000     0          
T        Si     0.806100000000     0.193650000000     0.806150000000     0          
T        Si     0.807150000000     0.057000000000     0.781950000000     0          
T        Si     0.691850000000     0.102750000000     0.844750000000     0          
O        O      0.656950000000     0.175050000000     0.667150000000     0          
O        O      0.688300000000     0.157850000000     0.723050000000     0          
O        O      0.562650000000     0.182150000000     0.681950000000     0          
O        O      0.910500000000     0.160500000000     0.625000000000     0          
O        O      0.593100000000     0.155850000000     0.736750000000     0          
T        Si     0.693650000000     0.193900000000     0.693850000000     0          
T        Si     0.557000000000     0.192850000000     0.718050000000     0          
T        Si     0.602750000000     0.308150000000     0.655250000000     0          
O        O      0.675050000000     0.343050000000     0.832850000000     0          
O        O      0.657850000000     0.311700000000     0.776950000000     0          
O        O      0.682150000000     0.437350000000     0.818050000000     0          
O        O      0.660500000000     0.089500000000     0.875000000000     0          
O        O      0.655850000000     0.406900000000     0.763250000000     0          
T        Si     0.693900000000     0.306350000000     0.806150000000     0          
T        Si     0.692850000000     0.443000000000     0.781950000000     0          
T        Si     0.808150000000     0.397250000000     0.844750000000     0          
O        O      0.906950000000     0.074950000000     0.917150000000     0          
O        O      0.938300000000     0.092150000000     0.973050000000     0          
O        O      0.570600000000     0.000000000000     0.953350000000     0          
O        O      0.500000000000     0.057550000000     0.931500000000     0          
O        O      0.646200000000     0.000000000000     0.896700000000     0          
O        O      0.812650000000     0.067850000000     0.931950000000     0          
O        O      0.843100000000     0.094150000000     0.986750000000     0          
O        O      0.678600000000     0.000000000000     0.974900000000     0          
O        O      0.750000000000     0.066650000000     0.977950000000     0          
T        Si     0.943650000000     0.056100000000     0.943850000000     0          
T        Si     0.807000000000     0.057150000000     0.968050000000     0          
T        Si     0.852750000000     0.441850000000     0.905250000000     0          
T        Si     0.601500000000     0.398500000000     0.500000000000     0          
O        O      0.574950000000     0.093050000000     0.582850000000     0          
O        O      0.592150000000     0.061700000000     0.526950000000     0          
O        O      0.500000000000     0.429400000000     0.546650000000     0          
O        O      0.557550000000     0.000000000000     0.568500000000     0          
O        O      0.500000000000     0.353800000000     0.603300000000     0          
O        O      0.567850000000     0.187350000000     0.568050000000     0          
O        O      0.594150000000     0.156900000000     0.513250000000     0          
O        O      0.500000000000     0.321400000000     0.525100000000     0          
O        O      0.566650000000     0.250000000000     0.522050000000     0          
T        Si     0.556100000000     0.056350000000     0.556150000000     0          
T        Si     0.557150000000     0.193000000000     0.531950000000     0          
T        Si     0.941850000000     0.147250000000     0.594750000000     0          
T        Si     0.898500000000     0.398500000000     0.500000000000     0          
O        O      0.593050000000     0.425050000000     0.917150000000     0          
O        O      0.561700000000     0.407850000000     0.973050000000     0          
O        O      0.929400000000     0.000000000000     0.953350000000     0          
O        O      0.500000000000     0.442450000000     0.931500000000     0          
O        O      0.853800000000     0.000000000000     0.896700000000     0          
O        O      0.687350000000     0.432150000000     0.931950000000     0          
O        O      0.656900000000     0.405850000000     0.986750000000     0          
O        O      0.821400000000     0.000000000000     0.974900000000     0          
O        O      0.750000000000     0.433350000000     0.977950000000     0          
T        Si     0.556350000000     0.443900000000     0.943850000000     0          
T        Si     0.693000000000     0.442850000000     0.968050000000     0          
T        Si     0.647250000000     0.058150000000     0.905250000000     0          
T        Si     0.898500000000     0.101500000000     0.500000000000     0          
O        O      0.925050000000     0.406950000000     0.582850000000     0          
O        O      0.907850000000     0.438300000000     0.526950000000     0          
O        O      0.500000000000     0.070600000000     0.546650000000     0          
O        O      0.942450000000     0.000000000000     0.568500000000     0          
O        O      0.500000000000     0.146200000000     0.603300000000     0          
O        O      0.932150000000     0.312650000000     0.568050000000     0          
O        O      0.905850000000     0.343100000000     0.513250000000     0          
O        O      0.500000000000     0.178600000000     0.525100000000     0          
O        O      0.933350000000     0.250000000000     0.522050000000     0          
T        Si     0.943900000000     0.443650000000     0.556150000000     0          
T        Si     0.942850000000     0.307000000000     0.531950000000     0          
T        Si     0.558150000000     0.352750000000     0.594750000000     0          
T        Si     0.601500000000     0.101500000000     0.500000000000     0          
O        O      0.593050000000     0.074950000000     0.917150000000     0          
O        O      0.561700000000     0.092150000000     0.973050000000     0          
O        O      0.687350000000     0.067850000000     0.931950000000     0          
O        O      0.656900000000     0.094150000000     0.986750000000     0          
T        Si     0.556350000000     0.056100000000     0.943850000000     0          
T        Si     0.693000000000     0.057150000000     0.968050000000     0          
T        Si     0.647250000000     0.441850000000     0.905250000000     0          
O        O      0.574950000000     0.406950000000     0.582850000000     0          
O        O      0.592150000000     0.438300000000     0.526950000000     0          
O        O      0.567850000000     0.312650000000     0.568050000000     0          
O        O      0.594150000000     0.343100000000     0.513250000000     0          
T        Si     0.556100000000     0.443650000000     0.556150000000     0          
T        Si     0.557150000000     0.307000000000     0.531950000000     0          
T        Si     0.941850000000     0.352750000000     0.594750000000     0          
O        O      0.906950000000     0.425050000000     0.917150000000     0          
O        O      0.938300000000     0.407850000000     0.973050000000     0          
O        O      0.812650000000     0.432150000000     0.931950000000     0          
O        O      0.843100000000     0.405850000000     0.986750000000     0          
T        Si     0.943650000000     0.443900000000     0.943850000000     0          
T        Si     0.807000000000     0.442850000000     0.968050000000     0          
T        Si     0.852750000000     0.058150000000     0.905250000000     0          
O        O      0.925050000000     0.093050000000     0.582850000000     0          
O        O      0.907850000000     0.061700000000     0.526950000000     0          
O        O      0.932150000000     0.187350000000     0.568050000000     0          
O        O      0.905850000000     0.156900000000     0.513250000000     0          
T        Si     0.943900000000     0.056350000000     0.556150000000     0          
T        Si     0.942850000000     0.193000000000     0.531950000000     0          
T        Si     0.558150000000     0.147250000000     0.594750000000     0          
O        O      0.656950000000     0.824950000000     0.167150000000     0          
O        O      0.688300000000     0.842150000000     0.223050000000     0          
O        O      0.820600000000     0.750000000000     0.203350000000     0          
O        O      0.750000000000     0.807550000000     0.181500000000     0          
O        O      0.896200000000     0.750000000000     0.146700000000     0          
O        O      0.562650000000     0.817850000000     0.181950000000     0          
O        O      0.910500000000     0.839500000000     0.125000000000     0          
O        O      0.593100000000     0.844150000000     0.236750000000     0          
O        O      0.928600000000     0.750000000000     0.224900000000     0          
O        O      0.500000000000     0.816650000000     0.227950000000     0          
T        Si     0.693650000000     0.806100000000     0.193850000000     0          
T        Si     0.557000000000     0.807150000000     0.218050000000     0          
T        Si     0.602750000000     0.691850000000     0.155250000000     0          
T        Si     0.851500000000     0.648500000000     0.250000000000     0          
O        O      0.824950000000     0.843050000000     0.332850000000     0          
O        O      0.842150000000     0.811700000000     0.276950000000     0          
O        O      0.750000000000     0.679400000000     0.296650000000     0          
O        O      0.807550000000     0.750000000000     0.318500000000     0          
O        O      0.750000000000     0.603800000000     0.353300000000     0          
O        O      0.817850000000     0.937350000000     0.318050000000     0          
O        O      0.839500000000     0.589500000000     0.375000000000     0          
O        O      0.844150000000     0.906900000000     0.263250000000     0          
O        O      0.750000000000     0.571400000000     0.275100000000     0          
O        O      0.816650000000     0.500000000000     0.272050000000     0          
T        Si     0.806100000000     0.806350000000     0.306150000000     0          
T        Si     0.807150000000     0.943000000000     0.281950000000     0          
T        Si     0.691850000000     0.897250000000     0.344750000000     0          
T        Si     0.648500000000     0.648500000000     0.250000000000     0          
O        O      0.843050000000     0.675050000000     0.167150000000     0          
O        O      0.811700000000     0.657850000000     0.223050000000     0          
O        O      0.679400000000     0.750000000000     0.203350000000     0          
O        O      0.750000000000     0.692450000000     0.181500000000     0          
O        O      0.603800000000     0.750000000000     0.146700000000     0          
O        O      0.937350000000     0.682150000000     0.181950000000     0          
O        O      0.589500000000     0.660500000000     0.125000000000     0          
O        O      0.906900000000     0.655850000000     0.236750000000     0          
O        O      0.571400000000     0.750000000000     0.224900000000     0          
O        O      0.500000000000     0.683350000000     0.227950000000     0          
T        Si     0.806350000000     0.693900000000     0.193850000000     0          
T        Si     0.943000000000     0.692850000000     0.218050000000     0          
T        Si     0.897250000000     0.808150000000     0.155250000000     0          
T        Si     0.648500000000     0.851500000000     0.250000000000     0          
O        O      0.675050000000     0.656950000000     0.332850000000     0          
O        O      0.657850000000     0.688300000000     0.276950000000     0          
O        O      0.750000000000     0.820600000000     0.296650000000     0          
O        O      0.692450000000     0.750000000000     0.318500000000     0          
O        O      0.750000000000     0.896200000000     0.353300000000     0          
O        O      0.682150000000     0.562650000000     0.318050000000     0          
O        O      0.660500000000     0.910500000000     0.375000000000     0          
O        O      0.655850000000     0.593100000000     0.263250000000     0          
O        O      0.750000000000     0.928600000000     0.275100000000     0          
O        O      0.683350000000     0.500000000000     0.272050000000     0          
T        Si     0.693900000000     0.693650000000     0.306150000000     0          
T        Si     0.692850000000     0.557000000000     0.281950000000     0          
T        Si     0.808150000000     0.602750000000     0.344750000000     0          
T        Si     0.851500000000     0.851500000000     0.250000000000     0          
O        O      0.843050000000     0.824950000000     0.167150000000     0          
O        O      0.811700000000     0.842150000000     0.223050000000     0          
O        O      0.937350000000     0.817850000000     0.181950000000     0          
O        O      0.589500000000     0.839500000000     0.125000000000     0          
O        O      0.906900000000     0.844150000000     0.236750000000     0          
T        Si     0.806350000000     0.806100000000     0.193850000000     0          
T        Si     0.943000000000     0.807150000000     0.218050000000     0          
T        Si     0.897250000000     0.691850000000     0.155250000000     0          
O        O      0.824950000000     0.656950000000     0.332850000000     0          
O        O      0.842150000000     0.688300000000     0.276950000000     0          
O        O      0.817850000000     0.562650000000     0.318050000000     0          
O        O      0.839500000000     0.910500000000     0.375000000000     0          
O        O      0.844150000000     0.593100000000     0.263250000000     0          
T        Si     0.806100000000     0.693650000000     0.306150000000     0          
T        Si     0.807150000000     0.557000000000     0.281950000000     0          
T        Si     0.691850000000     0.602750000000     0.344750000000     0          
O        O      0.656950000000     0.675050000000     0.167150000000     0          
O        O      0.688300000000     0.657850000000     0.223050000000     0          
O        O      0.562650000000     0.682150000000     0.181950000000     0          
O        O      0.910500000000     0.660500000000     0.125000000000     0          
O        O      0.593100000000     0.655850000000     0.236750000000     0          
T        Si     0.693650000000     0.693900000000     0.193850000000     0          
T        Si     0.557000000000     0.692850000000     0.218050000000     0          
T        Si     0.602750000000     0.808150000000     0.155250000000     0          
O        O      0.675050000000     0.843050000000     0.332850000000     0          
O        O      0.657850000000     0.811700000000     0.276950000000     0          
O        O      0.682150000000     0.937350000000     0.318050000000     0          
O        O      0.660500000000     0.589500000000     0.375000000000     0          
O        O      0.655850000000     0.906900000000     0.263250000000     0          
T        Si     0.693900000000     0.806350000000     0.306150000000     0          
T        Si     0.692850000000     0.943000000000     0.281950000000     0          
T        Si     0.808150000000     0.897250000000     0.344750000000     0          
O        O      0.906950000000     0.574950000000     0.417150000000     0          
O        O      0.938300000000     0.592150000000     0.473050000000     0          
O        O      0.570600000000     0.500000000000     0.453350000000     0          
O        O      0.500000000000     0.557550000000     0.431500000000     0          
O        O      0.646200000000     0.500000000000     0.396700000000     0          
O        O      0.812650000000     0.567850000000     0.431950000000     0          
O        O      0.843100000000     0.594150000000     0.486750000000     0          
O        O      0.678600000000     0.500000000000     0.474900000000     0          
O        O      0.750000000000     0.566650000000     0.477950000000     0          
T        Si     0.943650000000     0.556100000000     0.443850000000     0          
T        Si     0.807000000000     0.557150000000     0.468050000000     0          
T        Si     0.852750000000     0.941850000000     0.405250000000     0          
T        Si     0.601500000000     0.898500000000     0.000000000000     0          
O        O      0.574950000000     0.593050000000     0.082850000000     0          
O        O      0.592150000000     0.561700000000     0.026950000000     0          
O        O      0.500000000000     0.929400000000     0.046650000000     0          
O        O      0.557550000000     0.500000000000     0.068500000000     0          
O        O      0.500000000000     0.853800000000     0.103300000000     0          
O        O      0.567850000000     0.687350000000     0.068050000000     0          
O        O      0.594150000000     0.656900000000     0.013250000000     0          
O        O      0.500000000000     0.821400000000     0.025100000000     0          
O        O      0.566650000000     0.750000000000     0.022050000000     0          
T        Si     0.556100000000     0.556350000000     0.056150000000     0          
T        Si     0.557150000000     0.693000000000     0.031950000000     0          
T        Si     0.941850000000     0.647250000000     0.094750000000     0          
T        Si     0.898500000000     0.898500000000     0.000000000000     0          
O        O      0.593050000000     0.925050000000     0.417150000000     0          
O        O      0.561700000000     0.907850000000     0.473050000000     0          
O        O      0.929400000000     0.500000000000     0.453350000000     0          
O        O      0.500000000000     0.942450000000     0.431500000000     0          
O        O      0.853800000000     0.500000000000     0.396700000000     0          
O        O      0.687350000000     0.932150000000     0.431950000000     0          
O        O      0.656900000000     0.905850000000     0.486750000000     0          
O        O      0.821400000000     0.500000000000     0.474900000000     0          
O        O      0.750000000000     0.933350000000     0.477950000000     0          
T        Si     0.556350000000     0.943900000000     0.443850000000     0          
T        Si     0.693000000000     0.942850000000     0.468050000000     0          
T        Si     0.647250000000     0.558150000000     0.405250000000     0          
T        Si     0.898500000000     0.601500000000     0.000000000000     0          
O        O      0.925050000000     0.906950000000     0.082850000000     0          
O        O      0.907850000000     0.938300000000     0.026950000000     0          
O        O      0.500000000000     0.570600000000     0.046650000000     0          
O        O      0.942450000000     0.500000000000     0.068500000000     0          
O        O      0.500000000000     0.646200000000     0.103300000000     0          
O        O      0.932150000000     0.812650000000     0.068050000000     0          
O        O      0.905850000000     0.843100000000     0.013250000000     0          
O        O      0.500000000000     0.678600000000     0.025100000000     0          
O        O      0.933350000000     0.750000000000     0.022050000000     0          
T        Si     0.943900000000     0.943650000000     0.056150000000     0          
T        Si     0.942850000000     0.807000000000     0.031950000000     0          
T        Si     0.558150000000     0.852750000000     0.094750000000     0          
T        Si     0.601500000000     0.601500000000     0.000000000000     0          
O        O      0.593050000000     0.574950000000     0.417150000000     0          
O        O      0.561700000000     0.592150000000     0.473050000000     0          
O        O      0.687350000000     0.567850000000     0.431950000000     0          
O        O      0.656900000000     0.594150000000     0.486750000000     0          
T        Si     0.556350000000     0.556100000000     0.443850000000     0          
T        Si     0.693000000000     0.557150000000     0.468050000000     0          
T        Si     0.647250000000     0.941850000000     0.405250000000     0          
O        O      0.574950000000     0.906950000000     0.082850000000     0          
O        O      0.592150000000     0.938300000000     0.026950000000     0          
O        O      0.567850000000     0.812650000000     0.068050000000     0          
O        O      0.594150000000     0.843100000000     0.013250000000     0          
T        Si     0.556100000000     0.943650000000     0.056150000000     0          
T        Si     0.557150000000     0.807000000000     0.031950000000     0          
T        Si     0.941850000000     0.852750000000     0.094750000000     0          
O        O      0.906950000000     0.925050000000     0.417150000000     0          
O        O      0.938300000000     0.907850000000     0.473050000000     0          
O        O      0.812650000000     0.932150000000     0.431950000000     0          
O        O      0.843100000000     0.905850000000     0.486750000000     0          
T        Si     0.943650000000     0.943900000000     0.443850000000     0          
T        Si     0.807000000000     0.942850000000     0.468050000000     0          
T        Si     0.852750000000     0.558150000000     0.405250000000     0          
O        O      0.925050000000     0.593050000000     0.082850000000     0          
O        O      0.907850000000     0.561700000000     0.026950000000     0          
O        O      0.932150000000     0.687350000000     0.068050000000     0          
O        O      0.905850000000     0.656900000000     0.013250000000     0          
T        Si     0.943900000000     0.556350000000     0.056150000000     0          
T        Si     0.942850000000     0.693000000000     0.031950000000     0          
T        Si     0.558150000000     0.647250000000     0.094750000000     0          
O        O      0.656950000000     0.824950000000     0.667150000000     0          
O        O      0.688300000000     0.842150000000     0.723050000000     0          
O        O      0.820600000000     0.750000000000     0.703350000000     0          
O        O      0.750000000000     0.807550000000     0.681500000000     0          
O        O      0.896200000000     0.750000000000     0.646700000000     0          
O        O      0.562650000000     0.817850000000     0.681950000000     0          
O        O      0.910500000000     0.839500000000     0.625000000000     0          
O        O      0.593100000000     0.844150000000     0.736750000000     0          
O        O      0.928600000000     0.750000000000     0.724900000000     0          
O        O      0.500000000000     0.816650000000     0.727950000000     0          
T        Si     0.693650000000     0.806100000000     0.693850000000     0          
T        Si     0.557000000000     0.807150000000     0.718050000000     0          
T        Si     0.602750000000     0.691850000000     0.655250000000     0          
T        Si     0.851500000000     0.648500000000     0.750000000000     0          
O        O      0.824950000000     0.843050000000     0.832850000000     0          
O        O      0.842150000000     0.811700000000     0.776950000000     0          
O        O      0.750000000000     0.679400000000     0.796650000000     0          
O        O      0.807550000000     0.750000000000     0.818500000000     0          
O        O      0.750000000000     0.603800000000     0.853300000000     0          
O        O      0.817850000000     0.937350000000     0.818050000000     0          
O        O      0.839500000000     0.589500000000     0.875000000000     0          
O        O      0.844150000000     0.906900000000     0.763250000000     0          
O        O      0.750000000000     0.571400000000     0.775100000000     0          
O        O      0.816650000000     0.500000000000     0.772050000000     0          
T        Si     0.806100000000     0.806350000000     0.806150000000     0          
T        Si     0.807150000000     0.943000000000     0.781950000000     0          
T        Si     0.691850000000     0.897250000000     0.844750000000     0          
T        Si     0.648500000000     0.648500000000     0.750000000000     0          
O        O      0.843050000000     0.675050000000     0.667150000000     0          
O        O      0.811700000000     0.657850000000     0.723050000000     0          
O        O      0.679400000000     0.750000000000     0.703350000000     0          
O        O      0.750000000000     0.692450000000     0.681500000000     0          
O        O      0.603800000000     0.750000000000     0.646700000000     0          
O        O      0.937350000000     0.682150000000     0.681950000000     0          
O        O      0.589500000000     0.660500000000     0.625000000000     0          
O        O      0.906900000000     0.655850000000     0.736750000000     0          
O        O      0.571400000000     0.750000000000     0.724900000000     0          
O        O      0.500000000000     0.683350000000     0.727950000000     0          
T        Si     0.806350000000     0.693900000000     0.693850000000     0          
T        Si     0.943000000000     0.692850000000     0.718050000000     0          
T        Si     0.897250000000     0.808150000000     0.655250000000     0          
T        Si     0.648500000000     0.851500000000     0.750000000000     0          
O        O      0.675050000000     0.656950000000     0.832850000000     0          
O        O      0.657850000000     0.688300000000     0.776950000000     0          
O        O      0.750000000000     0.820600000000     0.796650000000     0          
O        O      0.692450000000     0.750000000000     0.818500000000     0          
O        O      0.750000000000     0.896200000000     0.853300000000     0          
O        O      0.682150000000     0.562650000000     0.818050000000     0          
O        O      0.660500000000     0.910500000000     0.875000000000     0          
O        O      0.655850000000     0.593100000000     0.763250000000     0          
O        O      0.750000000000     0.928600000000     0.775100000000     0          
O        O      0.683350000000     0.500000000000     0.772050000000     0          
T        Si     0.693900000000     0.693650000000     0.806150000000     0          
T        Si     0.692850000000     0.557000000000     0.781950000000     0          
T        Si     0.808150000000     0.602750000000     0.844750000000     0          
T        Si     0.851500000000     0.851500000000     0.750000000000     0          
O        O      0.843050000000     0.824950000000     0.667150000000     0          
O        O      0.811700000000     0.842150000000     0.723050000000     0          
O        O      0.937350000000     0.817850000000     0.681950000000     0          
O        O      0.589500000000     0.839500000000     0.625000000000     0          
O        O      0.906900000000     0.844150000000     0.736750000000     0          
T        Si     0.806350000000     0.806100000000     0.693850000000     0          
T        Si     0.943000000000     0.807150000000     0.718050000000     0          
T        Si     0.897250000000     0.691850000000     0.655250000000     0          
O        O      0.824950000000     0.656950000000     0.832850000000     0          
O        O      0.842150000000     0.688300000000     0.776950000000     0          
O        O      0.817850000000     0.562650000000     0.818050000000     0          
O        O      0.839500000000     0.910500000000     0.875000000000     0          
O        O      0.844150000000     0.593100000000     0.763250000000     0          
T        Si     0.806100000000     0.693650000000     0.806150000000     0          
T        Si     0.807150000000     0.557000000000     0.781950000000     0          
T        Si     0.691850000000     0.602750000000     0.844750000000     0          
O        O      0.656950000000     0.675050000000     0.667150000000     0          
O        O      0.688300000000     0.657850000000     0.723050000000     0          
O        O      0.562650000000     0.682150000000     0.681950000000     0          
O        O      0.910500000000     0.660500000000     0.625000000000     0          
O        O      0.593100000000     0.655850000000     0.736750000000     0          
T        Si     0.693650000000     0.693900000000     0.693850000000     0          
T        Si     0.557000000000     0.692850000000     0.718050000000     0          
T        Si     0.602750000000     0.808150000000     0.655250000000     0          
O        O      0.675050000000     0.843050000000     0.832850000000     0          
O        O      0.657850000000     0.811700000000     0.776950000000     0          
O        O      0.682150000000     0.937350000000     0.818050000000     0          
O        O      0.660500000000     0.589500000000     0.875000000000     0          
O        O      0.655850000000     0.906900000000     0.763250000000     0          
T        Si     0.693900000000     0.806350000000     0.806150000000     0          
T        Si     0.692850000000     0.943000000000     0.781950000000     0          
T        Si     0.808150000000     0.897250000000     0.844750000000     0          
O        O      0.906950000000     0.574950000000     0.917150000000     0          
O        O      0.938300000000     0.592150000000     0.973050000000     0          
O        O      0.570600000000     0.500000000000     0.953350000000     0          
O        O      0.500000000000     0.557550000000     0.931500000000     0          
O        O      0.646200000000     0.500000000000     0.896700000000     0          
O        O      0.812650000000     0.567850000000     0.931950000000     0          
O        O      0.843100000000     0.594150000000     0.986750000000     0          
O        O      0.678600000000     0.500000000000     0.974900000000     0          
O        O      0.750000000000     0.566650000000     0.977950000000     0          
T        Si     0.943650000000     0.556100000000     0.943850000000     0          
T        Si     0.807000000000     0.557150000000     0.968050000000     0          
T        Si     0.852750000000     0.941850000000     0.905250000000     0          
T        Si     0.601500000000     0.898500000000     0.500000000000     0          
O        O      0.574950000000     0.593050000000     0.582850000000     0          
O        O      0.592150000000     0.561700000000     0.526950000000     0          
O        O      0.500000000000     0.929400000000     0.546650000000     0          
O        O      0.557550000000     0.500000000000     0.568500000000     0          
O        O      0.500000000000     0.853800000000     0.603300000000     0          
O        O      0.567850000000     0.687350000000     0.568050000000     0          
O        O      0.594150000000     0.656900000000     0.513250000000     0          
O        O      0.500000000000     0.821400000000     0.525100000000     0          
O        O      0.566650000000     0.750000000000     0.522050000000     0          
T        Si     0.556100000000     0.556350000000     0.556150000000     0          
T        Si     0.557150000000     0.693000000000     0.531950000000     0          
T        Si     0.941850000000     0.647250000000     0.594750000000     0          
T        Si     0.898500000000     0.898500000000     0.500000000000     0          
O        O      0.593050000000     0.925050000000     0.917150000000     0          
O        O      0.561700000000     0.907850000000     0.973050000000     0          
O        O      0.929400000000     0.500000000000     0.953350000000     0          
O        O      0.500000000000     0.942450000000     0.931500000000     0          
O        O      0.853800000000     0.500000000000     0.896700000000     0          
O        O      0.687350000000     0.932150000000     0.931950000000     0          
O        O      0.656900000000     0.905850000000     0.986750000000     0          
O        O      0.821400000000     0.500000000000     0.974900000000     0          
O        O      0.750000000000     0.933350000000     0.977950000000     0          
T        Si     0.556350000000     0.943900000000     0.943850000000     0          
T        Si     0.693000000000     0.942850000000     0.968050000000     0          
T        Si     0.647250000000     0.558150000000     0.905250000000     0          
T        Si     0.898500000000     0.601500000000     0.500000000000     0          
O        O      0.925050000000     0.906950000000     0.582850000000     0          
O        O      0.907850000000     0.938300000000     0.526950000000     0          
O        O      0.500000000000     0.570600000000     0.546650000000     0          
O        O      0.942450000000     0.500000000000     0.568500000000     0          
O        O      0.500000000000     0.646200000000     0.603300000000     0          
O        O      0.932150000000     0.812650000000     0.568050000000     0          
O        O      0.905850000000     0.843100000000     0.513250000000     0          
O        O      0.500000000000     0.678600000000     0.525100000000     0          
O        O      0.933350000000     0.750000000000     0.522050000000     0          
T        Si     0.943900000000     0.943650000000     0.556150000000     0          
T        Si     0.942850000000     0.807000000000     0.531950000000     0          
T        Si     0.558150000000     0.852750000000     0.594750000000     0          
T        Si     0.601500000000     0.601500000000     0.500000000000     0          
O        O      0.593050000000     0.574950000000     0.917150000000     0          
O        O      0.561700000000     0.592150000000     0.973050000000     0          
O        O      0.687350000000     0.567850000000     0.931950000000     0          
O        O      0.656900000000     0.594150000000     0.986750000000     0          
T        Si     0.556350000000     0.556100000000     0.943850000000     0          
T        Si     0.693000000000     0.557150000000     0.968050000000     0          
T        Si     0.647250000000     0.941850000000     0.905250000000     0          
O        O      0.574950000000     0.906950000000     0.582850000000     0          
O        O      0.592150000000     0.938300000000     0.526950000000     0          
O        O      0.567850000000     0.812650000000     0.568050000000     0          
O        O      0.594150000000     0.843100000000     0.513250000000     0          
T        Si     0.556100000000     0.943650000000     0.556150000000     0          
T        Si     0.557150000000     0.807000000000     0.531950000000     0          
T        Si     0.941850000000     0.852750000000     0.594750000000     0          
O        O      0.906950000000     0.925050000000     0.917150000000     0          
O        O      0.938300000000     0.907850000000     0.973050000000     0          
O        O      0.812650000000     0.932150000000     0.931950000000     0          
O        O      0.843100000000     0.905850000000     0.986750000000     0          
T        Si     0.943650000000     0.943900000000     0.943850000000     0          
T        Si     0.807000000000     0.942850000000     0.968050000000     0          
T        Si     0.852750000000     0.558150000000     0.905250000000     0          
O        O      0.925050000000     0.593050000000     0.582850000000     0          
O        O      0.907850000000     0.561700000000     0.526950000000     0          
O        O      0.932150000000     0.687350000000     0.568050000000     0          
O        O      0.905850000000     0.656900000000     0.513250000000     0          
T        Si     0.943900000000     0.556350000000     0.556150000000     0          
T        Si     0.942850000000     0.693000000000     0.531950000000     0          
T        Si     0.558150000000     0.647250000000     0.594750000000     0          


