data_zeolite

_audit_creation_method RASPA-1.0
_audit_creation_date 2021-6-6
_audit_author_name ''

_cell_length_a    7.135
_cell_length_b    7.135
_cell_length_c    17.809
_cell_angle_alpha 90
_cell_angle_beta  90
_cell_angle_gamma 90
_cell_volume      29012

_symmetry_cell_setting          tetragonal
_symmetry_space_group_name_Hall 'P 1'
_symmetry_space_group_name_H-M  'P 1'
_symmetry_Int_Tables_number     1

_symmetry_equiv_pos_as_xyz 'x,y,z'

loop_
_atom_site_label
_atom_site_type_symbol
_atom_site_fract_x
_atom_site_fract_y
_atom_site_fract_z
_atom_site_charge
T        Si     0.000000000000     0.117575000000     0.044750000000     0          
T        Si     0.194925000000     0.187500000000     0.169750000000     0          
T        Si     0.125000000000     0.132425000000     0.294750000000     0          
T        Si     0.180075000000     0.062500000000     0.419750000000     0          
T        Si     0.000000000000     0.132425000000     0.455250000000     0          
T        Si     0.180075000000     0.187500000000     0.080250000000     0          
T        Si     0.125000000000     0.117575000000     0.205250000000     0          
T        Si     0.194925000000     0.062500000000     0.330250000000     0          
T        Si     0.055075000000     0.062500000000     0.330250000000     0          
T        Si     0.069925000000     0.187500000000     0.080250000000     0          
T        Si     0.069925000000     0.062500000000     0.419750000000     0          
T        Si     0.055075000000     0.187500000000     0.169750000000     0          
T        Si     0.125000000000     0.242575000000     0.294750000000     0          
T        Si     0.000000000000     0.007425000000     0.044750000000     0          
T        Si     0.125000000000     0.007425000000     0.205250000000     0          
T        Si     0.000000000000     0.242575000000     0.455250000000     0          
T        Si     0.000000000000     0.117575000000     0.544750000000     0          
T        Si     0.194925000000     0.187500000000     0.669750000000     0          
T        Si     0.125000000000     0.132425000000     0.794750000000     0          
T        Si     0.180075000000     0.062500000000     0.919750000000     0          
T        Si     0.000000000000     0.132425000000     0.955250000000     0          
T        Si     0.180075000000     0.187500000000     0.580250000000     0          
T        Si     0.125000000000     0.117575000000     0.705250000000     0          
T        Si     0.194925000000     0.062500000000     0.830250000000     0          
T        Si     0.055075000000     0.062500000000     0.830250000000     0          
T        Si     0.069925000000     0.187500000000     0.580250000000     0          
T        Si     0.069925000000     0.062500000000     0.919750000000     0          
T        Si     0.055075000000     0.187500000000     0.669750000000     0          
T        Si     0.125000000000     0.242575000000     0.794750000000     0          
T        Si     0.000000000000     0.007425000000     0.544750000000     0          
T        Si     0.125000000000     0.007425000000     0.705250000000     0          
T        Si     0.000000000000     0.242575000000     0.955250000000     0          
T        Si     0.000000000000     0.367575000000     0.044750000000     0          
T        Si     0.194925000000     0.437500000000     0.169750000000     0          
T        Si     0.125000000000     0.382425000000     0.294750000000     0          
T        Si     0.180075000000     0.312500000000     0.419750000000     0          
T        Si     0.000000000000     0.382425000000     0.455250000000     0          
T        Si     0.180075000000     0.437500000000     0.080250000000     0          
T        Si     0.125000000000     0.367575000000     0.205250000000     0          
T        Si     0.194925000000     0.312500000000     0.330250000000     0          
T        Si     0.055075000000     0.312500000000     0.330250000000     0          
T        Si     0.069925000000     0.437500000000     0.080250000000     0          
T        Si     0.069925000000     0.312500000000     0.419750000000     0          
T        Si     0.055075000000     0.437500000000     0.169750000000     0          
T        Si     0.125000000000     0.492575000000     0.294750000000     0          
T        Si     0.000000000000     0.257425000000     0.044750000000     0          
T        Si     0.125000000000     0.257425000000     0.205250000000     0          
T        Si     0.000000000000     0.492575000000     0.455250000000     0          
T        Si     0.000000000000     0.367575000000     0.544750000000     0          
T        Si     0.194925000000     0.437500000000     0.669750000000     0          
T        Si     0.125000000000     0.382425000000     0.794750000000     0          
T        Si     0.180075000000     0.312500000000     0.919750000000     0          
T        Si     0.000000000000     0.382425000000     0.955250000000     0          
T        Si     0.180075000000     0.437500000000     0.580250000000     0          
T        Si     0.125000000000     0.367575000000     0.705250000000     0          
T        Si     0.194925000000     0.312500000000     0.830250000000     0          
T        Si     0.055075000000     0.312500000000     0.830250000000     0          
T        Si     0.069925000000     0.437500000000     0.580250000000     0          
T        Si     0.069925000000     0.312500000000     0.919750000000     0          
T        Si     0.055075000000     0.437500000000     0.669750000000     0          
T        Si     0.125000000000     0.492575000000     0.794750000000     0          
T        Si     0.000000000000     0.257425000000     0.544750000000     0          
T        Si     0.125000000000     0.257425000000     0.705250000000     0          
T        Si     0.000000000000     0.492575000000     0.955250000000     0          
T        Si     0.000000000000     0.617575000000     0.044750000000     0          
T        Si     0.194925000000     0.687500000000     0.169750000000     0          
T        Si     0.125000000000     0.632425000000     0.294750000000     0          
T        Si     0.180075000000     0.562500000000     0.419750000000     0          
T        Si     0.000000000000     0.632425000000     0.455250000000     0          
T        Si     0.180075000000     0.687500000000     0.080250000000     0          
T        Si     0.125000000000     0.617575000000     0.205250000000     0          
T        Si     0.194925000000     0.562500000000     0.330250000000     0          
T        Si     0.055075000000     0.562500000000     0.330250000000     0          
T        Si     0.069925000000     0.687500000000     0.080250000000     0          
T        Si     0.069925000000     0.562500000000     0.419750000000     0          
T        Si     0.055075000000     0.687500000000     0.169750000000     0          
T        Si     0.125000000000     0.742575000000     0.294750000000     0          
T        Si     0.000000000000     0.507425000000     0.044750000000     0          
T        Si     0.125000000000     0.507425000000     0.205250000000     0          
T        Si     0.000000000000     0.742575000000     0.455250000000     0          
T        Si     0.000000000000     0.617575000000     0.544750000000     0          
T        Si     0.194925000000     0.687500000000     0.669750000000     0          
T        Si     0.125000000000     0.632425000000     0.794750000000     0          
T        Si     0.180075000000     0.562500000000     0.919750000000     0          
T        Si     0.000000000000     0.632425000000     0.955250000000     0          
T        Si     0.180075000000     0.687500000000     0.580250000000     0          
T        Si     0.125000000000     0.617575000000     0.705250000000     0          
T        Si     0.194925000000     0.562500000000     0.830250000000     0          
T        Si     0.055075000000     0.562500000000     0.830250000000     0          
T        Si     0.069925000000     0.687500000000     0.580250000000     0          
T        Si     0.069925000000     0.562500000000     0.919750000000     0          
T        Si     0.055075000000     0.687500000000     0.669750000000     0          
T        Si     0.125000000000     0.742575000000     0.794750000000     0          
T        Si     0.000000000000     0.507425000000     0.544750000000     0          
T        Si     0.125000000000     0.507425000000     0.705250000000     0          
T        Si     0.000000000000     0.742575000000     0.955250000000     0          
T        Si     0.000000000000     0.867575000000     0.044750000000     0          
T        Si     0.194925000000     0.937500000000     0.169750000000     0          
T        Si     0.125000000000     0.882425000000     0.294750000000     0          
T        Si     0.180075000000     0.812500000000     0.419750000000     0          
T        Si     0.000000000000     0.882425000000     0.455250000000     0          
T        Si     0.180075000000     0.937500000000     0.080250000000     0          
T        Si     0.125000000000     0.867575000000     0.205250000000     0          
T        Si     0.194925000000     0.812500000000     0.330250000000     0          
T        Si     0.055075000000     0.812500000000     0.330250000000     0          
T        Si     0.069925000000     0.937500000000     0.080250000000     0          
T        Si     0.069925000000     0.812500000000     0.419750000000     0          
T        Si     0.055075000000     0.937500000000     0.169750000000     0          
T        Si     0.125000000000     0.992575000000     0.294750000000     0          
T        Si     0.000000000000     0.757425000000     0.044750000000     0          
T        Si     0.125000000000     0.757425000000     0.205250000000     0          
T        Si     0.000000000000     0.992575000000     0.455250000000     0          
T        Si     0.000000000000     0.867575000000     0.544750000000     0          
T        Si     0.194925000000     0.937500000000     0.669750000000     0          
T        Si     0.125000000000     0.882425000000     0.794750000000     0          
T        Si     0.180075000000     0.812500000000     0.919750000000     0          
T        Si     0.000000000000     0.882425000000     0.955250000000     0          
T        Si     0.180075000000     0.937500000000     0.580250000000     0          
T        Si     0.125000000000     0.867575000000     0.705250000000     0          
T        Si     0.194925000000     0.812500000000     0.830250000000     0          
T        Si     0.055075000000     0.812500000000     0.830250000000     0          
T        Si     0.069925000000     0.937500000000     0.580250000000     0          
T        Si     0.069925000000     0.812500000000     0.919750000000     0          
T        Si     0.055075000000     0.937500000000     0.669750000000     0          
T        Si     0.125000000000     0.992575000000     0.794750000000     0          
T        Si     0.000000000000     0.757425000000     0.544750000000     0          
T        Si     0.125000000000     0.757425000000     0.705250000000     0          
T        Si     0.000000000000     0.992575000000     0.955250000000     0          
T        Si     0.250000000000     0.117575000000     0.044750000000     0          
T        Si     0.444925000000     0.187500000000     0.169750000000     0          
T        Si     0.375000000000     0.132425000000     0.294750000000     0          
T        Si     0.430075000000     0.062500000000     0.419750000000     0          
T        Si     0.250000000000     0.132425000000     0.455250000000     0          
T        Si     0.430075000000     0.187500000000     0.080250000000     0          
T        Si     0.375000000000     0.117575000000     0.205250000000     0          
T        Si     0.444925000000     0.062500000000     0.330250000000     0          
T        Si     0.305075000000     0.062500000000     0.330250000000     0          
T        Si     0.319925000000     0.187500000000     0.080250000000     0          
T        Si     0.319925000000     0.062500000000     0.419750000000     0          
T        Si     0.305075000000     0.187500000000     0.169750000000     0          
T        Si     0.375000000000     0.242575000000     0.294750000000     0          
T        Si     0.250000000000     0.007425000000     0.044750000000     0          
T        Si     0.375000000000     0.007425000000     0.205250000000     0          
T        Si     0.250000000000     0.242575000000     0.455250000000     0          
T        Si     0.250000000000     0.117575000000     0.544750000000     0          
T        Si     0.444925000000     0.187500000000     0.669750000000     0          
T        Si     0.375000000000     0.132425000000     0.794750000000     0          
T        Si     0.430075000000     0.062500000000     0.919750000000     0          
T        Si     0.250000000000     0.132425000000     0.955250000000     0          
T        Si     0.430075000000     0.187500000000     0.580250000000     0          
T        Si     0.375000000000     0.117575000000     0.705250000000     0          
T        Si     0.444925000000     0.062500000000     0.830250000000     0          
T        Si     0.305075000000     0.062500000000     0.830250000000     0          
T        Si     0.319925000000     0.187500000000     0.580250000000     0          
T        Si     0.319925000000     0.062500000000     0.919750000000     0          
T        Si     0.305075000000     0.187500000000     0.669750000000     0          
T        Si     0.375000000000     0.242575000000     0.794750000000     0          
T        Si     0.250000000000     0.007425000000     0.544750000000     0          
T        Si     0.375000000000     0.007425000000     0.705250000000     0          
T        Si     0.250000000000     0.242575000000     0.955250000000     0          
T        Si     0.250000000000     0.367575000000     0.044750000000     0          
T        Si     0.444925000000     0.437500000000     0.169750000000     0          
T        Si     0.375000000000     0.382425000000     0.294750000000     0          
T        Si     0.430075000000     0.312500000000     0.419750000000     0          
T        Si     0.250000000000     0.382425000000     0.455250000000     0          
T        Si     0.430075000000     0.437500000000     0.080250000000     0          
T        Si     0.375000000000     0.367575000000     0.205250000000     0          
T        Si     0.444925000000     0.312500000000     0.330250000000     0          
T        Si     0.305075000000     0.312500000000     0.330250000000     0          
T        Si     0.319925000000     0.437500000000     0.080250000000     0          
T        Si     0.319925000000     0.312500000000     0.419750000000     0          
T        Si     0.305075000000     0.437500000000     0.169750000000     0          
T        Si     0.375000000000     0.492575000000     0.294750000000     0          
T        Si     0.250000000000     0.257425000000     0.044750000000     0          
T        Si     0.375000000000     0.257425000000     0.205250000000     0          
T        Si     0.250000000000     0.492575000000     0.455250000000     0          
T        Si     0.250000000000     0.367575000000     0.544750000000     0          
T        Si     0.444925000000     0.437500000000     0.669750000000     0          
T        Si     0.375000000000     0.382425000000     0.794750000000     0          
T        Si     0.430075000000     0.312500000000     0.919750000000     0          
T        Si     0.250000000000     0.382425000000     0.955250000000     0          
T        Si     0.430075000000     0.437500000000     0.580250000000     0          
T        Si     0.375000000000     0.367575000000     0.705250000000     0          
T        Si     0.444925000000     0.312500000000     0.830250000000     0          
T        Si     0.305075000000     0.312500000000     0.830250000000     0          
T        Si     0.319925000000     0.437500000000     0.580250000000     0          
T        Si     0.319925000000     0.312500000000     0.919750000000     0          
T        Si     0.305075000000     0.437500000000     0.669750000000     0          
T        Si     0.375000000000     0.492575000000     0.794750000000     0          
T        Si     0.250000000000     0.257425000000     0.544750000000     0          
T        Si     0.375000000000     0.257425000000     0.705250000000     0          
T        Si     0.250000000000     0.492575000000     0.955250000000     0          
T        Si     0.250000000000     0.617575000000     0.044750000000     0          
T        Si     0.444925000000     0.687500000000     0.169750000000     0          
T        Si     0.375000000000     0.632425000000     0.294750000000     0          
T        Si     0.430075000000     0.562500000000     0.419750000000     0          
T        Si     0.250000000000     0.632425000000     0.455250000000     0          
T        Si     0.430075000000     0.687500000000     0.080250000000     0          
T        Si     0.375000000000     0.617575000000     0.205250000000     0          
T        Si     0.444925000000     0.562500000000     0.330250000000     0          
T        Si     0.305075000000     0.562500000000     0.330250000000     0          
T        Si     0.319925000000     0.687500000000     0.080250000000     0          
T        Si     0.319925000000     0.562500000000     0.419750000000     0          
T        Si     0.305075000000     0.687500000000     0.169750000000     0          
T        Si     0.375000000000     0.742575000000     0.294750000000     0          
T        Si     0.250000000000     0.507425000000     0.044750000000     0          
T        Si     0.375000000000     0.507425000000     0.205250000000     0          
T        Si     0.250000000000     0.742575000000     0.455250000000     0          
T        Si     0.250000000000     0.617575000000     0.544750000000     0          
T        Si     0.444925000000     0.687500000000     0.669750000000     0          
T        Si     0.375000000000     0.632425000000     0.794750000000     0          
T        Si     0.430075000000     0.562500000000     0.919750000000     0          
T        Si     0.250000000000     0.632425000000     0.955250000000     0          
T        Si     0.430075000000     0.687500000000     0.580250000000     0          
T        Si     0.375000000000     0.617575000000     0.705250000000     0          
T        Si     0.444925000000     0.562500000000     0.830250000000     0          
T        Si     0.305075000000     0.562500000000     0.830250000000     0          
T        Si     0.319925000000     0.687500000000     0.580250000000     0          
T        Si     0.319925000000     0.562500000000     0.919750000000     0          
T        Si     0.305075000000     0.687500000000     0.669750000000     0          
T        Si     0.375000000000     0.742575000000     0.794750000000     0          
T        Si     0.250000000000     0.507425000000     0.544750000000     0          
T        Si     0.375000000000     0.507425000000     0.705250000000     0          
T        Si     0.250000000000     0.742575000000     0.955250000000     0          
T        Si     0.250000000000     0.867575000000     0.044750000000     0          
T        Si     0.444925000000     0.937500000000     0.169750000000     0          
T        Si     0.375000000000     0.882425000000     0.294750000000     0          
T        Si     0.430075000000     0.812500000000     0.419750000000     0          
T        Si     0.250000000000     0.882425000000     0.455250000000     0          
T        Si     0.430075000000     0.937500000000     0.080250000000     0          
T        Si     0.375000000000     0.867575000000     0.205250000000     0          
T        Si     0.444925000000     0.812500000000     0.330250000000     0          
T        Si     0.305075000000     0.812500000000     0.330250000000     0          
T        Si     0.319925000000     0.937500000000     0.080250000000     0          
T        Si     0.319925000000     0.812500000000     0.419750000000     0          
T        Si     0.305075000000     0.937500000000     0.169750000000     0          
T        Si     0.375000000000     0.992575000000     0.294750000000     0          
T        Si     0.250000000000     0.757425000000     0.044750000000     0          
T        Si     0.375000000000     0.757425000000     0.205250000000     0          
T        Si     0.250000000000     0.992575000000     0.455250000000     0          
T        Si     0.250000000000     0.867575000000     0.544750000000     0          
T        Si     0.444925000000     0.937500000000     0.669750000000     0          
T        Si     0.375000000000     0.882425000000     0.794750000000     0          
T        Si     0.430075000000     0.812500000000     0.919750000000     0          
T        Si     0.250000000000     0.882425000000     0.955250000000     0          
T        Si     0.430075000000     0.937500000000     0.580250000000     0          
T        Si     0.375000000000     0.867575000000     0.705250000000     0          
T        Si     0.444925000000     0.812500000000     0.830250000000     0          
T        Si     0.305075000000     0.812500000000     0.830250000000     0          
T        Si     0.319925000000     0.937500000000     0.580250000000     0          
T        Si     0.319925000000     0.812500000000     0.919750000000     0          
T        Si     0.305075000000     0.937500000000     0.669750000000     0          
T        Si     0.375000000000     0.992575000000     0.794750000000     0          
T        Si     0.250000000000     0.757425000000     0.544750000000     0          
T        Si     0.375000000000     0.757425000000     0.705250000000     0          
T        Si     0.250000000000     0.992575000000     0.955250000000     0          
T        Si     0.500000000000     0.117575000000     0.044750000000     0          
T        Si     0.694925000000     0.187500000000     0.169750000000     0          
T        Si     0.625000000000     0.132425000000     0.294750000000     0          
T        Si     0.680075000000     0.062500000000     0.419750000000     0          
T        Si     0.500000000000     0.132425000000     0.455250000000     0          
T        Si     0.680075000000     0.187500000000     0.080250000000     0          
T        Si     0.625000000000     0.117575000000     0.205250000000     0          
T        Si     0.694925000000     0.062500000000     0.330250000000     0          
T        Si     0.555075000000     0.062500000000     0.330250000000     0          
T        Si     0.569925000000     0.187500000000     0.080250000000     0          
T        Si     0.569925000000     0.062500000000     0.419750000000     0          
T        Si     0.555075000000     0.187500000000     0.169750000000     0          
T        Si     0.625000000000     0.242575000000     0.294750000000     0          
T        Si     0.500000000000     0.007425000000     0.044750000000     0          
T        Si     0.625000000000     0.007425000000     0.205250000000     0          
T        Si     0.500000000000     0.242575000000     0.455250000000     0          
T        Si     0.500000000000     0.117575000000     0.544750000000     0          
T        Si     0.694925000000     0.187500000000     0.669750000000     0          
T        Si     0.625000000000     0.132425000000     0.794750000000     0          
T        Si     0.680075000000     0.062500000000     0.919750000000     0          
T        Si     0.500000000000     0.132425000000     0.955250000000     0          
T        Si     0.680075000000     0.187500000000     0.580250000000     0          
T        Si     0.625000000000     0.117575000000     0.705250000000     0          
T        Si     0.694925000000     0.062500000000     0.830250000000     0          
T        Si     0.555075000000     0.062500000000     0.830250000000     0          
T        Si     0.569925000000     0.187500000000     0.580250000000     0          
T        Si     0.569925000000     0.062500000000     0.919750000000     0          
T        Si     0.555075000000     0.187500000000     0.669750000000     0          
T        Si     0.625000000000     0.242575000000     0.794750000000     0          
T        Si     0.500000000000     0.007425000000     0.544750000000     0          
T        Si     0.625000000000     0.007425000000     0.705250000000     0          
T        Si     0.500000000000     0.242575000000     0.955250000000     0          
T        Si     0.500000000000     0.367575000000     0.044750000000     0          
T        Si     0.694925000000     0.437500000000     0.169750000000     0          
T        Si     0.625000000000     0.382425000000     0.294750000000     0          
T        Si     0.680075000000     0.312500000000     0.419750000000     0          
T        Si     0.500000000000     0.382425000000     0.455250000000     0          
T        Si     0.680075000000     0.437500000000     0.080250000000     0          
T        Si     0.625000000000     0.367575000000     0.205250000000     0          
T        Si     0.694925000000     0.312500000000     0.330250000000     0          
T        Si     0.555075000000     0.312500000000     0.330250000000     0          
T        Si     0.569925000000     0.437500000000     0.080250000000     0          
T        Si     0.569925000000     0.312500000000     0.419750000000     0          
T        Si     0.555075000000     0.437500000000     0.169750000000     0          
T        Si     0.625000000000     0.492575000000     0.294750000000     0          
T        Si     0.500000000000     0.257425000000     0.044750000000     0          
T        Si     0.625000000000     0.257425000000     0.205250000000     0          
T        Si     0.500000000000     0.492575000000     0.455250000000     0          
T        Si     0.500000000000     0.367575000000     0.544750000000     0          
T        Si     0.694925000000     0.437500000000     0.669750000000     0          
T        Si     0.625000000000     0.382425000000     0.794750000000     0          
T        Si     0.680075000000     0.312500000000     0.919750000000     0          
T        Si     0.500000000000     0.382425000000     0.955250000000     0          
T        Si     0.680075000000     0.437500000000     0.580250000000     0          
T        Si     0.625000000000     0.367575000000     0.705250000000     0          
T        Si     0.694925000000     0.312500000000     0.830250000000     0          
T        Si     0.555075000000     0.312500000000     0.830250000000     0          
T        Si     0.569925000000     0.437500000000     0.580250000000     0          
T        Si     0.569925000000     0.312500000000     0.919750000000     0          
T        Si     0.555075000000     0.437500000000     0.669750000000     0          
T        Si     0.625000000000     0.492575000000     0.794750000000     0          
T        Si     0.500000000000     0.257425000000     0.544750000000     0          
T        Si     0.625000000000     0.257425000000     0.705250000000     0          
T        Si     0.500000000000     0.492575000000     0.955250000000     0          
T        Si     0.500000000000     0.617575000000     0.044750000000     0          
T        Si     0.694925000000     0.687500000000     0.169750000000     0          
T        Si     0.625000000000     0.632425000000     0.294750000000     0          
T        Si     0.680075000000     0.562500000000     0.419750000000     0          
T        Si     0.500000000000     0.632425000000     0.455250000000     0          
T        Si     0.680075000000     0.687500000000     0.080250000000     0          
T        Si     0.625000000000     0.617575000000     0.205250000000     0          
T        Si     0.694925000000     0.562500000000     0.330250000000     0          
T        Si     0.555075000000     0.562500000000     0.330250000000     0          
T        Si     0.569925000000     0.687500000000     0.080250000000     0          
T        Si     0.569925000000     0.562500000000     0.419750000000     0          
T        Si     0.555075000000     0.687500000000     0.169750000000     0          
T        Si     0.625000000000     0.742575000000     0.294750000000     0          
T        Si     0.500000000000     0.507425000000     0.044750000000     0          
T        Si     0.625000000000     0.507425000000     0.205250000000     0          
T        Si     0.500000000000     0.742575000000     0.455250000000     0          
T        Si     0.500000000000     0.617575000000     0.544750000000     0          
T        Si     0.694925000000     0.687500000000     0.669750000000     0          
T        Si     0.625000000000     0.632425000000     0.794750000000     0          
T        Si     0.680075000000     0.562500000000     0.919750000000     0          
T        Si     0.500000000000     0.632425000000     0.955250000000     0          
T        Si     0.680075000000     0.687500000000     0.580250000000     0          
T        Si     0.625000000000     0.617575000000     0.705250000000     0          
T        Si     0.694925000000     0.562500000000     0.830250000000     0          
T        Si     0.555075000000     0.562500000000     0.830250000000     0          
T        Si     0.569925000000     0.687500000000     0.580250000000     0          
T        Si     0.569925000000     0.562500000000     0.919750000000     0          
T        Si     0.555075000000     0.687500000000     0.669750000000     0          
T        Si     0.625000000000     0.742575000000     0.794750000000     0          
T        Si     0.500000000000     0.507425000000     0.544750000000     0          
T        Si     0.625000000000     0.507425000000     0.705250000000     0          
T        Si     0.500000000000     0.742575000000     0.955250000000     0          
T        Si     0.500000000000     0.867575000000     0.044750000000     0          
T        Si     0.694925000000     0.937500000000     0.169750000000     0          
T        Si     0.625000000000     0.882425000000     0.294750000000     0          
T        Si     0.680075000000     0.812500000000     0.419750000000     0          
T        Si     0.500000000000     0.882425000000     0.455250000000     0          
T        Si     0.680075000000     0.937500000000     0.080250000000     0          
T        Si     0.625000000000     0.867575000000     0.205250000000     0          
T        Si     0.694925000000     0.812500000000     0.330250000000     0          
T        Si     0.555075000000     0.812500000000     0.330250000000     0          
T        Si     0.569925000000     0.937500000000     0.080250000000     0          
T        Si     0.569925000000     0.812500000000     0.419750000000     0          
T        Si     0.555075000000     0.937500000000     0.169750000000     0          
T        Si     0.625000000000     0.992575000000     0.294750000000     0          
T        Si     0.500000000000     0.757425000000     0.044750000000     0          
T        Si     0.625000000000     0.757425000000     0.205250000000     0          
T        Si     0.500000000000     0.992575000000     0.455250000000     0          
T        Si     0.500000000000     0.867575000000     0.544750000000     0          
T        Si     0.694925000000     0.937500000000     0.669750000000     0          
T        Si     0.625000000000     0.882425000000     0.794750000000     0          
T        Si     0.680075000000     0.812500000000     0.919750000000     0          
T        Si     0.500000000000     0.882425000000     0.955250000000     0          
T        Si     0.680075000000     0.937500000000     0.580250000000     0          
T        Si     0.625000000000     0.867575000000     0.705250000000     0          
T        Si     0.694925000000     0.812500000000     0.830250000000     0          
T        Si     0.555075000000     0.812500000000     0.830250000000     0          
T        Si     0.569925000000     0.937500000000     0.580250000000     0          
T        Si     0.569925000000     0.812500000000     0.919750000000     0          
T        Si     0.555075000000     0.937500000000     0.669750000000     0          
T        Si     0.625000000000     0.992575000000     0.794750000000     0          
T        Si     0.500000000000     0.757425000000     0.544750000000     0          
T        Si     0.625000000000     0.757425000000     0.705250000000     0          
T        Si     0.500000000000     0.992575000000     0.955250000000     0          
T        Si     0.750000000000     0.117575000000     0.044750000000     0          
T        Si     0.944925000000     0.187500000000     0.169750000000     0          
T        Si     0.875000000000     0.132425000000     0.294750000000     0          
T        Si     0.930075000000     0.062500000000     0.419750000000     0          
T        Si     0.750000000000     0.132425000000     0.455250000000     0          
T        Si     0.930075000000     0.187500000000     0.080250000000     0          
T        Si     0.875000000000     0.117575000000     0.205250000000     0          
T        Si     0.944925000000     0.062500000000     0.330250000000     0          
T        Si     0.805075000000     0.062500000000     0.330250000000     0          
T        Si     0.819925000000     0.187500000000     0.080250000000     0          
T        Si     0.819925000000     0.062500000000     0.419750000000     0          
T        Si     0.805075000000     0.187500000000     0.169750000000     0          
T        Si     0.875000000000     0.242575000000     0.294750000000     0          
T        Si     0.750000000000     0.007425000000     0.044750000000     0          
T        Si     0.875000000000     0.007425000000     0.205250000000     0          
T        Si     0.750000000000     0.242575000000     0.455250000000     0          
T        Si     0.750000000000     0.117575000000     0.544750000000     0          
T        Si     0.944925000000     0.187500000000     0.669750000000     0          
T        Si     0.875000000000     0.132425000000     0.794750000000     0          
T        Si     0.930075000000     0.062500000000     0.919750000000     0          
T        Si     0.750000000000     0.132425000000     0.955250000000     0          
T        Si     0.930075000000     0.187500000000     0.580250000000     0          
T        Si     0.875000000000     0.117575000000     0.705250000000     0          
T        Si     0.944925000000     0.062500000000     0.830250000000     0          
T        Si     0.805075000000     0.062500000000     0.830250000000     0          
T        Si     0.819925000000     0.187500000000     0.580250000000     0          
T        Si     0.819925000000     0.062500000000     0.919750000000     0          
T        Si     0.805075000000     0.187500000000     0.669750000000     0          
T        Si     0.875000000000     0.242575000000     0.794750000000     0          
T        Si     0.750000000000     0.007425000000     0.544750000000     0          
T        Si     0.875000000000     0.007425000000     0.705250000000     0          
T        Si     0.750000000000     0.242575000000     0.955250000000     0          
T        Si     0.750000000000     0.367575000000     0.044750000000     0          
T        Si     0.944925000000     0.437500000000     0.169750000000     0          
T        Si     0.875000000000     0.382425000000     0.294750000000     0          
T        Si     0.930075000000     0.312500000000     0.419750000000     0          
T        Si     0.750000000000     0.382425000000     0.455250000000     0          
T        Si     0.930075000000     0.437500000000     0.080250000000     0          
T        Si     0.875000000000     0.367575000000     0.205250000000     0          
T        Si     0.944925000000     0.312500000000     0.330250000000     0          
T        Si     0.805075000000     0.312500000000     0.330250000000     0          
T        Si     0.819925000000     0.437500000000     0.080250000000     0          
T        Si     0.819925000000     0.312500000000     0.419750000000     0          
T        Si     0.805075000000     0.437500000000     0.169750000000     0          
T        Si     0.875000000000     0.492575000000     0.294750000000     0          
T        Si     0.750000000000     0.257425000000     0.044750000000     0          
T        Si     0.875000000000     0.257425000000     0.205250000000     0          
T        Si     0.750000000000     0.492575000000     0.455250000000     0          
T        Si     0.750000000000     0.367575000000     0.544750000000     0          
T        Si     0.944925000000     0.437500000000     0.669750000000     0          
T        Si     0.875000000000     0.382425000000     0.794750000000     0          
T        Si     0.930075000000     0.312500000000     0.919750000000     0          
T        Si     0.750000000000     0.382425000000     0.955250000000     0          
T        Si     0.930075000000     0.437500000000     0.580250000000     0          
T        Si     0.875000000000     0.367575000000     0.705250000000     0          
T        Si     0.944925000000     0.312500000000     0.830250000000     0          
T        Si     0.805075000000     0.312500000000     0.830250000000     0          
T        Si     0.819925000000     0.437500000000     0.580250000000     0          
T        Si     0.819925000000     0.312500000000     0.919750000000     0          
T        Si     0.805075000000     0.437500000000     0.669750000000     0          
T        Si     0.875000000000     0.492575000000     0.794750000000     0          
T        Si     0.750000000000     0.257425000000     0.544750000000     0          
T        Si     0.875000000000     0.257425000000     0.705250000000     0          
T        Si     0.750000000000     0.492575000000     0.955250000000     0          
T        Si     0.750000000000     0.617575000000     0.044750000000     0          
T        Si     0.944925000000     0.687500000000     0.169750000000     0          
T        Si     0.875000000000     0.632425000000     0.294750000000     0          
T        Si     0.930075000000     0.562500000000     0.419750000000     0          
T        Si     0.750000000000     0.632425000000     0.455250000000     0          
T        Si     0.930075000000     0.687500000000     0.080250000000     0          
T        Si     0.875000000000     0.617575000000     0.205250000000     0          
T        Si     0.944925000000     0.562500000000     0.330250000000     0          
T        Si     0.805075000000     0.562500000000     0.330250000000     0          
T        Si     0.819925000000     0.687500000000     0.080250000000     0          
T        Si     0.819925000000     0.562500000000     0.419750000000     0          
T        Si     0.805075000000     0.687500000000     0.169750000000     0          
T        Si     0.875000000000     0.742575000000     0.294750000000     0          
T        Si     0.750000000000     0.507425000000     0.044750000000     0          
T        Si     0.875000000000     0.507425000000     0.205250000000     0          
T        Si     0.750000000000     0.742575000000     0.455250000000     0          
T        Si     0.750000000000     0.617575000000     0.544750000000     0          
T        Si     0.944925000000     0.687500000000     0.669750000000     0          
T        Si     0.875000000000     0.632425000000     0.794750000000     0          
T        Si     0.930075000000     0.562500000000     0.919750000000     0          
T        Si     0.750000000000     0.632425000000     0.955250000000     0          
T        Si     0.930075000000     0.687500000000     0.580250000000     0          
T        Si     0.875000000000     0.617575000000     0.705250000000     0          
T        Si     0.944925000000     0.562500000000     0.830250000000     0          
T        Si     0.805075000000     0.562500000000     0.830250000000     0          
T        Si     0.819925000000     0.687500000000     0.580250000000     0          
T        Si     0.819925000000     0.562500000000     0.919750000000     0          
T        Si     0.805075000000     0.687500000000     0.669750000000     0          
T        Si     0.875000000000     0.742575000000     0.794750000000     0          
T        Si     0.750000000000     0.507425000000     0.544750000000     0          
T        Si     0.875000000000     0.507425000000     0.705250000000     0          
T        Si     0.750000000000     0.742575000000     0.955250000000     0          
T        Si     0.750000000000     0.867575000000     0.044750000000     0          
T        Si     0.944925000000     0.937500000000     0.169750000000     0          
T        Si     0.875000000000     0.882425000000     0.294750000000     0          
T        Si     0.930075000000     0.812500000000     0.419750000000     0          
T        Si     0.750000000000     0.882425000000     0.455250000000     0          
T        Si     0.930075000000     0.937500000000     0.080250000000     0          
T        Si     0.875000000000     0.867575000000     0.205250000000     0          
T        Si     0.944925000000     0.812500000000     0.330250000000     0          
T        Si     0.805075000000     0.812500000000     0.330250000000     0          
T        Si     0.819925000000     0.937500000000     0.080250000000     0          
T        Si     0.819925000000     0.812500000000     0.419750000000     0          
T        Si     0.805075000000     0.937500000000     0.169750000000     0          
T        Si     0.875000000000     0.992575000000     0.294750000000     0          
T        Si     0.750000000000     0.757425000000     0.044750000000     0          
T        Si     0.875000000000     0.757425000000     0.205250000000     0          
T        Si     0.750000000000     0.992575000000     0.455250000000     0          
T        Si     0.750000000000     0.867575000000     0.544750000000     0          
T        Si     0.944925000000     0.937500000000     0.669750000000     0          
T        Si     0.875000000000     0.882425000000     0.794750000000     0          
T        Si     0.930075000000     0.812500000000     0.919750000000     0          
T        Si     0.750000000000     0.882425000000     0.955250000000     0          
T        Si     0.930075000000     0.937500000000     0.580250000000     0          
T        Si     0.875000000000     0.867575000000     0.705250000000     0          
T        Si     0.944925000000     0.812500000000     0.830250000000     0          
T        Si     0.805075000000     0.812500000000     0.830250000000     0          
T        Si     0.819925000000     0.937500000000     0.580250000000     0          
T        Si     0.819925000000     0.812500000000     0.919750000000     0          
T        Si     0.805075000000     0.937500000000     0.669750000000     0          
T        Si     0.875000000000     0.992575000000     0.794750000000     0          
T        Si     0.750000000000     0.757425000000     0.544750000000     0          
T        Si     0.875000000000     0.757425000000     0.705250000000     0          
T        Si     0.750000000000     0.992575000000     0.955250000000     0          
O        O      0.000000000000     0.062500000000     0.054350000000     0          
O        O      0.203950000000     0.141450000000     0.062500000000     0          
O        O      0.000000000000     0.125000000000     0.000000000000     0          
O        O      0.000000000000     0.187500000000     0.179350000000     0          
O        O      0.171050000000     0.141450000000     0.187500000000     0          
O        O      0.187500000000     0.187500000000     0.125000000000     0          
O        O      0.125000000000     0.187500000000     0.304350000000     0          
O        O      0.171050000000     0.108550000000     0.312500000000     0          
O        O      0.125000000000     0.125000000000     0.250000000000     0          
O        O      0.125000000000     0.062500000000     0.429350000000     0          
O        O      0.203950000000     0.108550000000     0.437500000000     0          
O        O      0.187500000000     0.062500000000     0.375000000000     0          
O        O      0.000000000000     0.187500000000     0.445650000000     0          
O        O      0.125000000000     0.187500000000     0.070650000000     0          
O        O      0.125000000000     0.062500000000     0.195650000000     0          
O        O      0.000000000000     0.062500000000     0.320650000000     0          
O        O      0.046050000000     0.108550000000     0.437500000000     0          
O        O      0.078950000000     0.108550000000     0.312500000000     0          
O        O      0.062500000000     0.062500000000     0.375000000000     0          
O        O      0.078950000000     0.141450000000     0.187500000000     0          
O        O      0.046050000000     0.141450000000     0.062500000000     0          
O        O      0.062500000000     0.187500000000     0.125000000000     0          
O        O      0.078950000000     0.016450000000     0.312500000000     0          
O        O      0.125000000000     0.000000000000     0.250000000000     0          
O        O      0.046050000000     0.016450000000     0.437500000000     0          
O        O      0.046050000000     0.233550000000     0.062500000000     0          
O        O      0.000000000000     0.000000000000     0.000000000000     0          
O        O      0.078950000000     0.233550000000     0.187500000000     0          
O        O      0.171050000000     0.233550000000     0.187500000000     0          
O        O      0.203950000000     0.233550000000     0.062500000000     0          
O        O      0.203950000000     0.016450000000     0.437500000000     0          
O        O      0.171050000000     0.016450000000     0.312500000000     0          
O        O      0.000000000000     0.062500000000     0.554350000000     0          
O        O      0.203950000000     0.141450000000     0.562500000000     0          
O        O      0.000000000000     0.125000000000     0.500000000000     0          
O        O      0.000000000000     0.187500000000     0.679350000000     0          
O        O      0.171050000000     0.141450000000     0.687500000000     0          
O        O      0.187500000000     0.187500000000     0.625000000000     0          
O        O      0.125000000000     0.187500000000     0.804350000000     0          
O        O      0.171050000000     0.108550000000     0.812500000000     0          
O        O      0.125000000000     0.125000000000     0.750000000000     0          
O        O      0.125000000000     0.062500000000     0.929350000000     0          
O        O      0.203950000000     0.108550000000     0.937500000000     0          
O        O      0.187500000000     0.062500000000     0.875000000000     0          
O        O      0.000000000000     0.187500000000     0.945650000000     0          
O        O      0.125000000000     0.187500000000     0.570650000000     0          
O        O      0.125000000000     0.062500000000     0.695650000000     0          
O        O      0.000000000000     0.062500000000     0.820650000000     0          
O        O      0.046050000000     0.108550000000     0.937500000000     0          
O        O      0.078950000000     0.108550000000     0.812500000000     0          
O        O      0.062500000000     0.062500000000     0.875000000000     0          
O        O      0.078950000000     0.141450000000     0.687500000000     0          
O        O      0.046050000000     0.141450000000     0.562500000000     0          
O        O      0.062500000000     0.187500000000     0.625000000000     0          
O        O      0.078950000000     0.016450000000     0.812500000000     0          
O        O      0.125000000000     0.000000000000     0.750000000000     0          
O        O      0.046050000000     0.016450000000     0.937500000000     0          
O        O      0.046050000000     0.233550000000     0.562500000000     0          
O        O      0.000000000000     0.000000000000     0.500000000000     0          
O        O      0.078950000000     0.233550000000     0.687500000000     0          
O        O      0.171050000000     0.233550000000     0.687500000000     0          
O        O      0.203950000000     0.233550000000     0.562500000000     0          
O        O      0.203950000000     0.016450000000     0.937500000000     0          
O        O      0.171050000000     0.016450000000     0.812500000000     0          
O        O      0.000000000000     0.312500000000     0.054350000000     0          
O        O      0.203950000000     0.391450000000     0.062500000000     0          
O        O      0.000000000000     0.375000000000     0.000000000000     0          
O        O      0.000000000000     0.437500000000     0.179350000000     0          
O        O      0.171050000000     0.391450000000     0.187500000000     0          
O        O      0.187500000000     0.437500000000     0.125000000000     0          
O        O      0.125000000000     0.437500000000     0.304350000000     0          
O        O      0.171050000000     0.358550000000     0.312500000000     0          
O        O      0.125000000000     0.375000000000     0.250000000000     0          
O        O      0.125000000000     0.312500000000     0.429350000000     0          
O        O      0.203950000000     0.358550000000     0.437500000000     0          
O        O      0.187500000000     0.312500000000     0.375000000000     0          
O        O      0.000000000000     0.437500000000     0.445650000000     0          
O        O      0.125000000000     0.437500000000     0.070650000000     0          
O        O      0.125000000000     0.312500000000     0.195650000000     0          
O        O      0.000000000000     0.312500000000     0.320650000000     0          
O        O      0.046050000000     0.358550000000     0.437500000000     0          
O        O      0.078950000000     0.358550000000     0.312500000000     0          
O        O      0.062500000000     0.312500000000     0.375000000000     0          
O        O      0.078950000000     0.391450000000     0.187500000000     0          
O        O      0.046050000000     0.391450000000     0.062500000000     0          
O        O      0.062500000000     0.437500000000     0.125000000000     0          
O        O      0.078950000000     0.266450000000     0.312500000000     0          
O        O      0.125000000000     0.250000000000     0.250000000000     0          
O        O      0.046050000000     0.266450000000     0.437500000000     0          
O        O      0.046050000000     0.483550000000     0.062500000000     0          
O        O      0.000000000000     0.250000000000     0.000000000000     0          
O        O      0.078950000000     0.483550000000     0.187500000000     0          
O        O      0.171050000000     0.483550000000     0.187500000000     0          
O        O      0.203950000000     0.483550000000     0.062500000000     0          
O        O      0.203950000000     0.266450000000     0.437500000000     0          
O        O      0.171050000000     0.266450000000     0.312500000000     0          
O        O      0.000000000000     0.312500000000     0.554350000000     0          
O        O      0.203950000000     0.391450000000     0.562500000000     0          
O        O      0.000000000000     0.375000000000     0.500000000000     0          
O        O      0.000000000000     0.437500000000     0.679350000000     0          
O        O      0.171050000000     0.391450000000     0.687500000000     0          
O        O      0.187500000000     0.437500000000     0.625000000000     0          
O        O      0.125000000000     0.437500000000     0.804350000000     0          
O        O      0.171050000000     0.358550000000     0.812500000000     0          
O        O      0.125000000000     0.375000000000     0.750000000000     0          
O        O      0.125000000000     0.312500000000     0.929350000000     0          
O        O      0.203950000000     0.358550000000     0.937500000000     0          
O        O      0.187500000000     0.312500000000     0.875000000000     0          
O        O      0.000000000000     0.437500000000     0.945650000000     0          
O        O      0.125000000000     0.437500000000     0.570650000000     0          
O        O      0.125000000000     0.312500000000     0.695650000000     0          
O        O      0.000000000000     0.312500000000     0.820650000000     0          
O        O      0.046050000000     0.358550000000     0.937500000000     0          
O        O      0.078950000000     0.358550000000     0.812500000000     0          
O        O      0.062500000000     0.312500000000     0.875000000000     0          
O        O      0.078950000000     0.391450000000     0.687500000000     0          
O        O      0.046050000000     0.391450000000     0.562500000000     0          
O        O      0.062500000000     0.437500000000     0.625000000000     0          
O        O      0.078950000000     0.266450000000     0.812500000000     0          
O        O      0.125000000000     0.250000000000     0.750000000000     0          
O        O      0.046050000000     0.266450000000     0.937500000000     0          
O        O      0.046050000000     0.483550000000     0.562500000000     0          
O        O      0.000000000000     0.250000000000     0.500000000000     0          
O        O      0.078950000000     0.483550000000     0.687500000000     0          
O        O      0.171050000000     0.483550000000     0.687500000000     0          
O        O      0.203950000000     0.483550000000     0.562500000000     0          
O        O      0.203950000000     0.266450000000     0.937500000000     0          
O        O      0.171050000000     0.266450000000     0.812500000000     0          
O        O      0.000000000000     0.562500000000     0.054350000000     0          
O        O      0.203950000000     0.641450000000     0.062500000000     0          
O        O      0.000000000000     0.625000000000     0.000000000000     0          
O        O      0.000000000000     0.687500000000     0.179350000000     0          
O        O      0.171050000000     0.641450000000     0.187500000000     0          
O        O      0.187500000000     0.687500000000     0.125000000000     0          
O        O      0.125000000000     0.687500000000     0.304350000000     0          
O        O      0.171050000000     0.608550000000     0.312500000000     0          
O        O      0.125000000000     0.625000000000     0.250000000000     0          
O        O      0.125000000000     0.562500000000     0.429350000000     0          
O        O      0.203950000000     0.608550000000     0.437500000000     0          
O        O      0.187500000000     0.562500000000     0.375000000000     0          
O        O      0.000000000000     0.687500000000     0.445650000000     0          
O        O      0.125000000000     0.687500000000     0.070650000000     0          
O        O      0.125000000000     0.562500000000     0.195650000000     0          
O        O      0.000000000000     0.562500000000     0.320650000000     0          
O        O      0.046050000000     0.608550000000     0.437500000000     0          
O        O      0.078950000000     0.608550000000     0.312500000000     0          
O        O      0.062500000000     0.562500000000     0.375000000000     0          
O        O      0.078950000000     0.641450000000     0.187500000000     0          
O        O      0.046050000000     0.641450000000     0.062500000000     0          
O        O      0.062500000000     0.687500000000     0.125000000000     0          
O        O      0.078950000000     0.516450000000     0.312500000000     0          
O        O      0.125000000000     0.500000000000     0.250000000000     0          
O        O      0.046050000000     0.516450000000     0.437500000000     0          
O        O      0.046050000000     0.733550000000     0.062500000000     0          
O        O      0.000000000000     0.500000000000     0.000000000000     0          
O        O      0.078950000000     0.733550000000     0.187500000000     0          
O        O      0.171050000000     0.733550000000     0.187500000000     0          
O        O      0.203950000000     0.733550000000     0.062500000000     0          
O        O      0.203950000000     0.516450000000     0.437500000000     0          
O        O      0.171050000000     0.516450000000     0.312500000000     0          
O        O      0.000000000000     0.562500000000     0.554350000000     0          
O        O      0.203950000000     0.641450000000     0.562500000000     0          
O        O      0.000000000000     0.625000000000     0.500000000000     0          
O        O      0.000000000000     0.687500000000     0.679350000000     0          
O        O      0.171050000000     0.641450000000     0.687500000000     0          
O        O      0.187500000000     0.687500000000     0.625000000000     0          
O        O      0.125000000000     0.687500000000     0.804350000000     0          
O        O      0.171050000000     0.608550000000     0.812500000000     0          
O        O      0.125000000000     0.625000000000     0.750000000000     0          
O        O      0.125000000000     0.562500000000     0.929350000000     0          
O        O      0.203950000000     0.608550000000     0.937500000000     0          
O        O      0.187500000000     0.562500000000     0.875000000000     0          
O        O      0.000000000000     0.687500000000     0.945650000000     0          
O        O      0.125000000000     0.687500000000     0.570650000000     0          
O        O      0.125000000000     0.562500000000     0.695650000000     0          
O        O      0.000000000000     0.562500000000     0.820650000000     0          
O        O      0.046050000000     0.608550000000     0.937500000000     0          
O        O      0.078950000000     0.608550000000     0.812500000000     0          
O        O      0.062500000000     0.562500000000     0.875000000000     0          
O        O      0.078950000000     0.641450000000     0.687500000000     0          
O        O      0.046050000000     0.641450000000     0.562500000000     0          
O        O      0.062500000000     0.687500000000     0.625000000000     0          
O        O      0.078950000000     0.516450000000     0.812500000000     0          
O        O      0.125000000000     0.500000000000     0.750000000000     0          
O        O      0.046050000000     0.516450000000     0.937500000000     0          
O        O      0.046050000000     0.733550000000     0.562500000000     0          
O        O      0.000000000000     0.500000000000     0.500000000000     0          
O        O      0.078950000000     0.733550000000     0.687500000000     0          
O        O      0.171050000000     0.733550000000     0.687500000000     0          
O        O      0.203950000000     0.733550000000     0.562500000000     0          
O        O      0.203950000000     0.516450000000     0.937500000000     0          
O        O      0.171050000000     0.516450000000     0.812500000000     0          
O        O      0.000000000000     0.812500000000     0.054350000000     0          
O        O      0.203950000000     0.891450000000     0.062500000000     0          
O        O      0.000000000000     0.875000000000     0.000000000000     0          
O        O      0.000000000000     0.937500000000     0.179350000000     0          
O        O      0.171050000000     0.891450000000     0.187500000000     0          
O        O      0.187500000000     0.937500000000     0.125000000000     0          
O        O      0.125000000000     0.937500000000     0.304350000000     0          
O        O      0.171050000000     0.858550000000     0.312500000000     0          
O        O      0.125000000000     0.875000000000     0.250000000000     0          
O        O      0.125000000000     0.812500000000     0.429350000000     0          
O        O      0.203950000000     0.858550000000     0.437500000000     0          
O        O      0.187500000000     0.812500000000     0.375000000000     0          
O        O      0.000000000000     0.937500000000     0.445650000000     0          
O        O      0.125000000000     0.937500000000     0.070650000000     0          
O        O      0.125000000000     0.812500000000     0.195650000000     0          
O        O      0.000000000000     0.812500000000     0.320650000000     0          
O        O      0.046050000000     0.858550000000     0.437500000000     0          
O        O      0.078950000000     0.858550000000     0.312500000000     0          
O        O      0.062500000000     0.812500000000     0.375000000000     0          
O        O      0.078950000000     0.891450000000     0.187500000000     0          
O        O      0.046050000000     0.891450000000     0.062500000000     0          
O        O      0.062500000000     0.937500000000     0.125000000000     0          
O        O      0.078950000000     0.766450000000     0.312500000000     0          
O        O      0.125000000000     0.750000000000     0.250000000000     0          
O        O      0.046050000000     0.766450000000     0.437500000000     0          
O        O      0.046050000000     0.983550000000     0.062500000000     0          
O        O      0.000000000000     0.750000000000     0.000000000000     0          
O        O      0.078950000000     0.983550000000     0.187500000000     0          
O        O      0.171050000000     0.983550000000     0.187500000000     0          
O        O      0.203950000000     0.983550000000     0.062500000000     0          
O        O      0.203950000000     0.766450000000     0.437500000000     0          
O        O      0.171050000000     0.766450000000     0.312500000000     0          
O        O      0.000000000000     0.812500000000     0.554350000000     0          
O        O      0.203950000000     0.891450000000     0.562500000000     0          
O        O      0.000000000000     0.875000000000     0.500000000000     0          
O        O      0.000000000000     0.937500000000     0.679350000000     0          
O        O      0.171050000000     0.891450000000     0.687500000000     0          
O        O      0.187500000000     0.937500000000     0.625000000000     0          
O        O      0.125000000000     0.937500000000     0.804350000000     0          
O        O      0.171050000000     0.858550000000     0.812500000000     0          
O        O      0.125000000000     0.875000000000     0.750000000000     0          
O        O      0.125000000000     0.812500000000     0.929350000000     0          
O        O      0.203950000000     0.858550000000     0.937500000000     0          
O        O      0.187500000000     0.812500000000     0.875000000000     0          
O        O      0.000000000000     0.937500000000     0.945650000000     0          
O        O      0.125000000000     0.937500000000     0.570650000000     0          
O        O      0.125000000000     0.812500000000     0.695650000000     0          
O        O      0.000000000000     0.812500000000     0.820650000000     0          
O        O      0.046050000000     0.858550000000     0.937500000000     0          
O        O      0.078950000000     0.858550000000     0.812500000000     0          
O        O      0.062500000000     0.812500000000     0.875000000000     0          
O        O      0.078950000000     0.891450000000     0.687500000000     0          
O        O      0.046050000000     0.891450000000     0.562500000000     0          
O        O      0.062500000000     0.937500000000     0.625000000000     0          
O        O      0.078950000000     0.766450000000     0.812500000000     0          
O        O      0.125000000000     0.750000000000     0.750000000000     0          
O        O      0.046050000000     0.766450000000     0.937500000000     0          
O        O      0.046050000000     0.983550000000     0.562500000000     0          
O        O      0.000000000000     0.750000000000     0.500000000000     0          
O        O      0.078950000000     0.983550000000     0.687500000000     0          
O        O      0.171050000000     0.983550000000     0.687500000000     0          
O        O      0.203950000000     0.983550000000     0.562500000000     0          
O        O      0.203950000000     0.766450000000     0.937500000000     0          
O        O      0.171050000000     0.766450000000     0.812500000000     0          
O        O      0.250000000000     0.062500000000     0.054350000000     0          
O        O      0.453950000000     0.141450000000     0.062500000000     0          
O        O      0.250000000000     0.125000000000     0.000000000000     0          
O        O      0.250000000000     0.187500000000     0.179350000000     0          
O        O      0.421050000000     0.141450000000     0.187500000000     0          
O        O      0.437500000000     0.187500000000     0.125000000000     0          
O        O      0.375000000000     0.187500000000     0.304350000000     0          
O        O      0.421050000000     0.108550000000     0.312500000000     0          
O        O      0.375000000000     0.125000000000     0.250000000000     0          
O        O      0.375000000000     0.062500000000     0.429350000000     0          
O        O      0.453950000000     0.108550000000     0.437500000000     0          
O        O      0.437500000000     0.062500000000     0.375000000000     0          
O        O      0.250000000000     0.187500000000     0.445650000000     0          
O        O      0.375000000000     0.187500000000     0.070650000000     0          
O        O      0.375000000000     0.062500000000     0.195650000000     0          
O        O      0.250000000000     0.062500000000     0.320650000000     0          
O        O      0.296050000000     0.108550000000     0.437500000000     0          
O        O      0.328950000000     0.108550000000     0.312500000000     0          
O        O      0.312500000000     0.062500000000     0.375000000000     0          
O        O      0.328950000000     0.141450000000     0.187500000000     0          
O        O      0.296050000000     0.141450000000     0.062500000000     0          
O        O      0.312500000000     0.187500000000     0.125000000000     0          
O        O      0.328950000000     0.016450000000     0.312500000000     0          
O        O      0.375000000000     0.000000000000     0.250000000000     0          
O        O      0.296050000000     0.016450000000     0.437500000000     0          
O        O      0.296050000000     0.233550000000     0.062500000000     0          
O        O      0.250000000000     0.000000000000     0.000000000000     0          
O        O      0.328950000000     0.233550000000     0.187500000000     0          
O        O      0.421050000000     0.233550000000     0.187500000000     0          
O        O      0.453950000000     0.233550000000     0.062500000000     0          
O        O      0.453950000000     0.016450000000     0.437500000000     0          
O        O      0.421050000000     0.016450000000     0.312500000000     0          
O        O      0.250000000000     0.062500000000     0.554350000000     0          
O        O      0.453950000000     0.141450000000     0.562500000000     0          
O        O      0.250000000000     0.125000000000     0.500000000000     0          
O        O      0.250000000000     0.187500000000     0.679350000000     0          
O        O      0.421050000000     0.141450000000     0.687500000000     0          
O        O      0.437500000000     0.187500000000     0.625000000000     0          
O        O      0.375000000000     0.187500000000     0.804350000000     0          
O        O      0.421050000000     0.108550000000     0.812500000000     0          
O        O      0.375000000000     0.125000000000     0.750000000000     0          
O        O      0.375000000000     0.062500000000     0.929350000000     0          
O        O      0.453950000000     0.108550000000     0.937500000000     0          
O        O      0.437500000000     0.062500000000     0.875000000000     0          
O        O      0.250000000000     0.187500000000     0.945650000000     0          
O        O      0.375000000000     0.187500000000     0.570650000000     0          
O        O      0.375000000000     0.062500000000     0.695650000000     0          
O        O      0.250000000000     0.062500000000     0.820650000000     0          
O        O      0.296050000000     0.108550000000     0.937500000000     0          
O        O      0.328950000000     0.108550000000     0.812500000000     0          
O        O      0.312500000000     0.062500000000     0.875000000000     0          
O        O      0.328950000000     0.141450000000     0.687500000000     0          
O        O      0.296050000000     0.141450000000     0.562500000000     0          
O        O      0.312500000000     0.187500000000     0.625000000000     0          
O        O      0.328950000000     0.016450000000     0.812500000000     0          
O        O      0.375000000000     0.000000000000     0.750000000000     0          
O        O      0.296050000000     0.016450000000     0.937500000000     0          
O        O      0.296050000000     0.233550000000     0.562500000000     0          
O        O      0.250000000000     0.000000000000     0.500000000000     0          
O        O      0.328950000000     0.233550000000     0.687500000000     0          
O        O      0.421050000000     0.233550000000     0.687500000000     0          
O        O      0.453950000000     0.233550000000     0.562500000000     0          
O        O      0.453950000000     0.016450000000     0.937500000000     0          
O        O      0.421050000000     0.016450000000     0.812500000000     0          
O        O      0.250000000000     0.312500000000     0.054350000000     0          
O        O      0.453950000000     0.391450000000     0.062500000000     0          
O        O      0.250000000000     0.375000000000     0.000000000000     0          
O        O      0.250000000000     0.437500000000     0.179350000000     0          
O        O      0.421050000000     0.391450000000     0.187500000000     0          
O        O      0.437500000000     0.437500000000     0.125000000000     0          
O        O      0.375000000000     0.437500000000     0.304350000000     0          
O        O      0.421050000000     0.358550000000     0.312500000000     0          
O        O      0.375000000000     0.375000000000     0.250000000000     0          
O        O      0.375000000000     0.312500000000     0.429350000000     0          
O        O      0.453950000000     0.358550000000     0.437500000000     0          
O        O      0.437500000000     0.312500000000     0.375000000000     0          
O        O      0.250000000000     0.437500000000     0.445650000000     0          
O        O      0.375000000000     0.437500000000     0.070650000000     0          
O        O      0.375000000000     0.312500000000     0.195650000000     0          
O        O      0.250000000000     0.312500000000     0.320650000000     0          
O        O      0.296050000000     0.358550000000     0.437500000000     0          
O        O      0.328950000000     0.358550000000     0.312500000000     0          
O        O      0.312500000000     0.312500000000     0.375000000000     0          
O        O      0.328950000000     0.391450000000     0.187500000000     0          
O        O      0.296050000000     0.391450000000     0.062500000000     0          
O        O      0.312500000000     0.437500000000     0.125000000000     0          
O        O      0.328950000000     0.266450000000     0.312500000000     0          
O        O      0.375000000000     0.250000000000     0.250000000000     0          
O        O      0.296050000000     0.266450000000     0.437500000000     0          
O        O      0.296050000000     0.483550000000     0.062500000000     0          
O        O      0.250000000000     0.250000000000     0.000000000000     0          
O        O      0.328950000000     0.483550000000     0.187500000000     0          
O        O      0.421050000000     0.483550000000     0.187500000000     0          
O        O      0.453950000000     0.483550000000     0.062500000000     0          
O        O      0.453950000000     0.266450000000     0.437500000000     0          
O        O      0.421050000000     0.266450000000     0.312500000000     0          
O        O      0.250000000000     0.312500000000     0.554350000000     0          
O        O      0.453950000000     0.391450000000     0.562500000000     0          
O        O      0.250000000000     0.375000000000     0.500000000000     0          
O        O      0.250000000000     0.437500000000     0.679350000000     0          
O        O      0.421050000000     0.391450000000     0.687500000000     0          
O        O      0.437500000000     0.437500000000     0.625000000000     0          
O        O      0.375000000000     0.437500000000     0.804350000000     0          
O        O      0.421050000000     0.358550000000     0.812500000000     0          
O        O      0.375000000000     0.375000000000     0.750000000000     0          
O        O      0.375000000000     0.312500000000     0.929350000000     0          
O        O      0.453950000000     0.358550000000     0.937500000000     0          
O        O      0.437500000000     0.312500000000     0.875000000000     0          
O        O      0.250000000000     0.437500000000     0.945650000000     0          
O        O      0.375000000000     0.437500000000     0.570650000000     0          
O        O      0.375000000000     0.312500000000     0.695650000000     0          
O        O      0.250000000000     0.312500000000     0.820650000000     0          
O        O      0.296050000000     0.358550000000     0.937500000000     0          
O        O      0.328950000000     0.358550000000     0.812500000000     0          
O        O      0.312500000000     0.312500000000     0.875000000000     0          
O        O      0.328950000000     0.391450000000     0.687500000000     0          
O        O      0.296050000000     0.391450000000     0.562500000000     0          
O        O      0.312500000000     0.437500000000     0.625000000000     0          
O        O      0.328950000000     0.266450000000     0.812500000000     0          
O        O      0.375000000000     0.250000000000     0.750000000000     0          
O        O      0.296050000000     0.266450000000     0.937500000000     0          
O        O      0.296050000000     0.483550000000     0.562500000000     0          
O        O      0.250000000000     0.250000000000     0.500000000000     0          
O        O      0.328950000000     0.483550000000     0.687500000000     0          
O        O      0.421050000000     0.483550000000     0.687500000000     0          
O        O      0.453950000000     0.483550000000     0.562500000000     0          
O        O      0.453950000000     0.266450000000     0.937500000000     0          
O        O      0.421050000000     0.266450000000     0.812500000000     0          
O        O      0.250000000000     0.562500000000     0.054350000000     0          
O        O      0.453950000000     0.641450000000     0.062500000000     0          
O        O      0.250000000000     0.625000000000     0.000000000000     0          
O        O      0.250000000000     0.687500000000     0.179350000000     0          
O        O      0.421050000000     0.641450000000     0.187500000000     0          
O        O      0.437500000000     0.687500000000     0.125000000000     0          
O        O      0.375000000000     0.687500000000     0.304350000000     0          
O        O      0.421050000000     0.608550000000     0.312500000000     0          
O        O      0.375000000000     0.625000000000     0.250000000000     0          
O        O      0.375000000000     0.562500000000     0.429350000000     0          
O        O      0.453950000000     0.608550000000     0.437500000000     0          
O        O      0.437500000000     0.562500000000     0.375000000000     0          
O        O      0.250000000000     0.687500000000     0.445650000000     0          
O        O      0.375000000000     0.687500000000     0.070650000000     0          
O        O      0.375000000000     0.562500000000     0.195650000000     0          
O        O      0.250000000000     0.562500000000     0.320650000000     0          
O        O      0.296050000000     0.608550000000     0.437500000000     0          
O        O      0.328950000000     0.608550000000     0.312500000000     0          
O        O      0.312500000000     0.562500000000     0.375000000000     0          
O        O      0.328950000000     0.641450000000     0.187500000000     0          
O        O      0.296050000000     0.641450000000     0.062500000000     0          
O        O      0.312500000000     0.687500000000     0.125000000000     0          
O        O      0.328950000000     0.516450000000     0.312500000000     0          
O        O      0.375000000000     0.500000000000     0.250000000000     0          
O        O      0.296050000000     0.516450000000     0.437500000000     0          
O        O      0.296050000000     0.733550000000     0.062500000000     0          
O        O      0.250000000000     0.500000000000     0.000000000000     0          
O        O      0.328950000000     0.733550000000     0.187500000000     0          
O        O      0.421050000000     0.733550000000     0.187500000000     0          
O        O      0.453950000000     0.733550000000     0.062500000000     0          
O        O      0.453950000000     0.516450000000     0.437500000000     0          
O        O      0.421050000000     0.516450000000     0.312500000000     0          
O        O      0.250000000000     0.562500000000     0.554350000000     0          
O        O      0.453950000000     0.641450000000     0.562500000000     0          
O        O      0.250000000000     0.625000000000     0.500000000000     0          
O        O      0.250000000000     0.687500000000     0.679350000000     0          
O        O      0.421050000000     0.641450000000     0.687500000000     0          
O        O      0.437500000000     0.687500000000     0.625000000000     0          
O        O      0.375000000000     0.687500000000     0.804350000000     0          
O        O      0.421050000000     0.608550000000     0.812500000000     0          
O        O      0.375000000000     0.625000000000     0.750000000000     0          
O        O      0.375000000000     0.562500000000     0.929350000000     0          
O        O      0.453950000000     0.608550000000     0.937500000000     0          
O        O      0.437500000000     0.562500000000     0.875000000000     0          
O        O      0.250000000000     0.687500000000     0.945650000000     0          
O        O      0.375000000000     0.687500000000     0.570650000000     0          
O        O      0.375000000000     0.562500000000     0.695650000000     0          
O        O      0.250000000000     0.562500000000     0.820650000000     0          
O        O      0.296050000000     0.608550000000     0.937500000000     0          
O        O      0.328950000000     0.608550000000     0.812500000000     0          
O        O      0.312500000000     0.562500000000     0.875000000000     0          
O        O      0.328950000000     0.641450000000     0.687500000000     0          
O        O      0.296050000000     0.641450000000     0.562500000000     0          
O        O      0.312500000000     0.687500000000     0.625000000000     0          
O        O      0.328950000000     0.516450000000     0.812500000000     0          
O        O      0.375000000000     0.500000000000     0.750000000000     0          
O        O      0.296050000000     0.516450000000     0.937500000000     0          
O        O      0.296050000000     0.733550000000     0.562500000000     0          
O        O      0.250000000000     0.500000000000     0.500000000000     0          
O        O      0.328950000000     0.733550000000     0.687500000000     0          
O        O      0.421050000000     0.733550000000     0.687500000000     0          
O        O      0.453950000000     0.733550000000     0.562500000000     0          
O        O      0.453950000000     0.516450000000     0.937500000000     0          
O        O      0.421050000000     0.516450000000     0.812500000000     0          
O        O      0.250000000000     0.812500000000     0.054350000000     0          
O        O      0.453950000000     0.891450000000     0.062500000000     0          
O        O      0.250000000000     0.875000000000     0.000000000000     0          
O        O      0.250000000000     0.937500000000     0.179350000000     0          
O        O      0.421050000000     0.891450000000     0.187500000000     0          
O        O      0.437500000000     0.937500000000     0.125000000000     0          
O        O      0.375000000000     0.937500000000     0.304350000000     0          
O        O      0.421050000000     0.858550000000     0.312500000000     0          
O        O      0.375000000000     0.875000000000     0.250000000000     0          
O        O      0.375000000000     0.812500000000     0.429350000000     0          
O        O      0.453950000000     0.858550000000     0.437500000000     0          
O        O      0.437500000000     0.812500000000     0.375000000000     0          
O        O      0.250000000000     0.937500000000     0.445650000000     0          
O        O      0.375000000000     0.937500000000     0.070650000000     0          
O        O      0.375000000000     0.812500000000     0.195650000000     0          
O        O      0.250000000000     0.812500000000     0.320650000000     0          
O        O      0.296050000000     0.858550000000     0.437500000000     0          
O        O      0.328950000000     0.858550000000     0.312500000000     0          
O        O      0.312500000000     0.812500000000     0.375000000000     0          
O        O      0.328950000000     0.891450000000     0.187500000000     0          
O        O      0.296050000000     0.891450000000     0.062500000000     0          
O        O      0.312500000000     0.937500000000     0.125000000000     0          
O        O      0.328950000000     0.766450000000     0.312500000000     0          
O        O      0.375000000000     0.750000000000     0.250000000000     0          
O        O      0.296050000000     0.766450000000     0.437500000000     0          
O        O      0.296050000000     0.983550000000     0.062500000000     0          
O        O      0.250000000000     0.750000000000     0.000000000000     0          
O        O      0.328950000000     0.983550000000     0.187500000000     0          
O        O      0.421050000000     0.983550000000     0.187500000000     0          
O        O      0.453950000000     0.983550000000     0.062500000000     0          
O        O      0.453950000000     0.766450000000     0.437500000000     0          
O        O      0.421050000000     0.766450000000     0.312500000000     0          
O        O      0.250000000000     0.812500000000     0.554350000000     0          
O        O      0.453950000000     0.891450000000     0.562500000000     0          
O        O      0.250000000000     0.875000000000     0.500000000000     0          
O        O      0.250000000000     0.937500000000     0.679350000000     0          
O        O      0.421050000000     0.891450000000     0.687500000000     0          
O        O      0.437500000000     0.937500000000     0.625000000000     0          
O        O      0.375000000000     0.937500000000     0.804350000000     0          
O        O      0.421050000000     0.858550000000     0.812500000000     0          
O        O      0.375000000000     0.875000000000     0.750000000000     0          
O        O      0.375000000000     0.812500000000     0.929350000000     0          
O        O      0.453950000000     0.858550000000     0.937500000000     0          
O        O      0.437500000000     0.812500000000     0.875000000000     0          
O        O      0.250000000000     0.937500000000     0.945650000000     0          
O        O      0.375000000000     0.937500000000     0.570650000000     0          
O        O      0.375000000000     0.812500000000     0.695650000000     0          
O        O      0.250000000000     0.812500000000     0.820650000000     0          
O        O      0.296050000000     0.858550000000     0.937500000000     0          
O        O      0.328950000000     0.858550000000     0.812500000000     0          
O        O      0.312500000000     0.812500000000     0.875000000000     0          
O        O      0.328950000000     0.891450000000     0.687500000000     0          
O        O      0.296050000000     0.891450000000     0.562500000000     0          
O        O      0.312500000000     0.937500000000     0.625000000000     0          
O        O      0.328950000000     0.766450000000     0.812500000000     0          
O        O      0.375000000000     0.750000000000     0.750000000000     0          
O        O      0.296050000000     0.766450000000     0.937500000000     0          
O        O      0.296050000000     0.983550000000     0.562500000000     0          
O        O      0.250000000000     0.750000000000     0.500000000000     0          
O        O      0.328950000000     0.983550000000     0.687500000000     0          
O        O      0.421050000000     0.983550000000     0.687500000000     0          
O        O      0.453950000000     0.983550000000     0.562500000000     0          
O        O      0.453950000000     0.766450000000     0.937500000000     0          
O        O      0.421050000000     0.766450000000     0.812500000000     0          
O        O      0.500000000000     0.062500000000     0.054350000000     0          
O        O      0.703950000000     0.141450000000     0.062500000000     0          
O        O      0.500000000000     0.125000000000     0.000000000000     0          
O        O      0.500000000000     0.187500000000     0.179350000000     0          
O        O      0.671050000000     0.141450000000     0.187500000000     0          
O        O      0.687500000000     0.187500000000     0.125000000000     0          
O        O      0.625000000000     0.187500000000     0.304350000000     0          
O        O      0.671050000000     0.108550000000     0.312500000000     0          
O        O      0.625000000000     0.125000000000     0.250000000000     0          
O        O      0.625000000000     0.062500000000     0.429350000000     0          
O        O      0.703950000000     0.108550000000     0.437500000000     0          
O        O      0.687500000000     0.062500000000     0.375000000000     0          
O        O      0.500000000000     0.187500000000     0.445650000000     0          
O        O      0.625000000000     0.187500000000     0.070650000000     0          
O        O      0.625000000000     0.062500000000     0.195650000000     0          
O        O      0.500000000000     0.062500000000     0.320650000000     0          
O        O      0.546050000000     0.108550000000     0.437500000000     0          
O        O      0.578950000000     0.108550000000     0.312500000000     0          
O        O      0.562500000000     0.062500000000     0.375000000000     0          
O        O      0.578950000000     0.141450000000     0.187500000000     0          
O        O      0.546050000000     0.141450000000     0.062500000000     0          
O        O      0.562500000000     0.187500000000     0.125000000000     0          
O        O      0.578950000000     0.016450000000     0.312500000000     0          
O        O      0.625000000000     0.000000000000     0.250000000000     0          
O        O      0.546050000000     0.016450000000     0.437500000000     0          
O        O      0.546050000000     0.233550000000     0.062500000000     0          
O        O      0.500000000000     0.000000000000     0.000000000000     0          
O        O      0.578950000000     0.233550000000     0.187500000000     0          
O        O      0.671050000000     0.233550000000     0.187500000000     0          
O        O      0.703950000000     0.233550000000     0.062500000000     0          
O        O      0.703950000000     0.016450000000     0.437500000000     0          
O        O      0.671050000000     0.016450000000     0.312500000000     0          
O        O      0.500000000000     0.062500000000     0.554350000000     0          
O        O      0.703950000000     0.141450000000     0.562500000000     0          
O        O      0.500000000000     0.125000000000     0.500000000000     0          
O        O      0.500000000000     0.187500000000     0.679350000000     0          
O        O      0.671050000000     0.141450000000     0.687500000000     0          
O        O      0.687500000000     0.187500000000     0.625000000000     0          
O        O      0.625000000000     0.187500000000     0.804350000000     0          
O        O      0.671050000000     0.108550000000     0.812500000000     0          
O        O      0.625000000000     0.125000000000     0.750000000000     0          
O        O      0.625000000000     0.062500000000     0.929350000000     0          
O        O      0.703950000000     0.108550000000     0.937500000000     0          
O        O      0.687500000000     0.062500000000     0.875000000000     0          
O        O      0.500000000000     0.187500000000     0.945650000000     0          
O        O      0.625000000000     0.187500000000     0.570650000000     0          
O        O      0.625000000000     0.062500000000     0.695650000000     0          
O        O      0.500000000000     0.062500000000     0.820650000000     0          
O        O      0.546050000000     0.108550000000     0.937500000000     0          
O        O      0.578950000000     0.108550000000     0.812500000000     0          
O        O      0.562500000000     0.062500000000     0.875000000000     0          
O        O      0.578950000000     0.141450000000     0.687500000000     0          
O        O      0.546050000000     0.141450000000     0.562500000000     0          
O        O      0.562500000000     0.187500000000     0.625000000000     0          
O        O      0.578950000000     0.016450000000     0.812500000000     0          
O        O      0.625000000000     0.000000000000     0.750000000000     0          
O        O      0.546050000000     0.016450000000     0.937500000000     0          
O        O      0.546050000000     0.233550000000     0.562500000000     0          
O        O      0.500000000000     0.000000000000     0.500000000000     0          
O        O      0.578950000000     0.233550000000     0.687500000000     0          
O        O      0.671050000000     0.233550000000     0.687500000000     0          
O        O      0.703950000000     0.233550000000     0.562500000000     0          
O        O      0.703950000000     0.016450000000     0.937500000000     0          
O        O      0.671050000000     0.016450000000     0.812500000000     0          
O        O      0.500000000000     0.312500000000     0.054350000000     0          
O        O      0.703950000000     0.391450000000     0.062500000000     0          
O        O      0.500000000000     0.375000000000     0.000000000000     0          
O        O      0.500000000000     0.437500000000     0.179350000000     0          
O        O      0.671050000000     0.391450000000     0.187500000000     0          
O        O      0.687500000000     0.437500000000     0.125000000000     0          
O        O      0.625000000000     0.437500000000     0.304350000000     0          
O        O      0.671050000000     0.358550000000     0.312500000000     0          
O        O      0.625000000000     0.375000000000     0.250000000000     0          
O        O      0.625000000000     0.312500000000     0.429350000000     0          
O        O      0.703950000000     0.358550000000     0.437500000000     0          
O        O      0.687500000000     0.312500000000     0.375000000000     0          
O        O      0.500000000000     0.437500000000     0.445650000000     0          
O        O      0.625000000000     0.437500000000     0.070650000000     0          
O        O      0.625000000000     0.312500000000     0.195650000000     0          
O        O      0.500000000000     0.312500000000     0.320650000000     0          
O        O      0.546050000000     0.358550000000     0.437500000000     0          
O        O      0.578950000000     0.358550000000     0.312500000000     0          
O        O      0.562500000000     0.312500000000     0.375000000000     0          
O        O      0.578950000000     0.391450000000     0.187500000000     0          
O        O      0.546050000000     0.391450000000     0.062500000000     0          
O        O      0.562500000000     0.437500000000     0.125000000000     0          
O        O      0.578950000000     0.266450000000     0.312500000000     0          
O        O      0.625000000000     0.250000000000     0.250000000000     0          
O        O      0.546050000000     0.266450000000     0.437500000000     0          
O        O      0.546050000000     0.483550000000     0.062500000000     0          
O        O      0.500000000000     0.250000000000     0.000000000000     0          
O        O      0.578950000000     0.483550000000     0.187500000000     0          
O        O      0.671050000000     0.483550000000     0.187500000000     0          
O        O      0.703950000000     0.483550000000     0.062500000000     0          
O        O      0.703950000000     0.266450000000     0.437500000000     0          
O        O      0.671050000000     0.266450000000     0.312500000000     0          
O        O      0.500000000000     0.312500000000     0.554350000000     0          
O        O      0.703950000000     0.391450000000     0.562500000000     0          
O        O      0.500000000000     0.375000000000     0.500000000000     0          
O        O      0.500000000000     0.437500000000     0.679350000000     0          
O        O      0.671050000000     0.391450000000     0.687500000000     0          
O        O      0.687500000000     0.437500000000     0.625000000000     0          
O        O      0.625000000000     0.437500000000     0.804350000000     0          
O        O      0.671050000000     0.358550000000     0.812500000000     0          
O        O      0.625000000000     0.375000000000     0.750000000000     0          
O        O      0.625000000000     0.312500000000     0.929350000000     0          
O        O      0.703950000000     0.358550000000     0.937500000000     0          
O        O      0.687500000000     0.312500000000     0.875000000000     0          
O        O      0.500000000000     0.437500000000     0.945650000000     0          
O        O      0.625000000000     0.437500000000     0.570650000000     0          
O        O      0.625000000000     0.312500000000     0.695650000000     0          
O        O      0.500000000000     0.312500000000     0.820650000000     0          
O        O      0.546050000000     0.358550000000     0.937500000000     0          
O        O      0.578950000000     0.358550000000     0.812500000000     0          
O        O      0.562500000000     0.312500000000     0.875000000000     0          
O        O      0.578950000000     0.391450000000     0.687500000000     0          
O        O      0.546050000000     0.391450000000     0.562500000000     0          
O        O      0.562500000000     0.437500000000     0.625000000000     0          
O        O      0.578950000000     0.266450000000     0.812500000000     0          
O        O      0.625000000000     0.250000000000     0.750000000000     0          
O        O      0.546050000000     0.266450000000     0.937500000000     0          
O        O      0.546050000000     0.483550000000     0.562500000000     0          
O        O      0.500000000000     0.250000000000     0.500000000000     0          
O        O      0.578950000000     0.483550000000     0.687500000000     0          
O        O      0.671050000000     0.483550000000     0.687500000000     0          
O        O      0.703950000000     0.483550000000     0.562500000000     0          
O        O      0.703950000000     0.266450000000     0.937500000000     0          
O        O      0.671050000000     0.266450000000     0.812500000000     0          
O        O      0.500000000000     0.562500000000     0.054350000000     0          
O        O      0.703950000000     0.641450000000     0.062500000000     0          
O        O      0.500000000000     0.625000000000     0.000000000000     0          
O        O      0.500000000000     0.687500000000     0.179350000000     0          
O        O      0.671050000000     0.641450000000     0.187500000000     0          
O        O      0.687500000000     0.687500000000     0.125000000000     0          
O        O      0.625000000000     0.687500000000     0.304350000000     0          
O        O      0.671050000000     0.608550000000     0.312500000000     0          
O        O      0.625000000000     0.625000000000     0.250000000000     0          
O        O      0.625000000000     0.562500000000     0.429350000000     0          
O        O      0.703950000000     0.608550000000     0.437500000000     0          
O        O      0.687500000000     0.562500000000     0.375000000000     0          
O        O      0.500000000000     0.687500000000     0.445650000000     0          
O        O      0.625000000000     0.687500000000     0.070650000000     0          
O        O      0.625000000000     0.562500000000     0.195650000000     0          
O        O      0.500000000000     0.562500000000     0.320650000000     0          
O        O      0.546050000000     0.608550000000     0.437500000000     0          
O        O      0.578950000000     0.608550000000     0.312500000000     0          
O        O      0.562500000000     0.562500000000     0.375000000000     0          
O        O      0.578950000000     0.641450000000     0.187500000000     0          
O        O      0.546050000000     0.641450000000     0.062500000000     0          
O        O      0.562500000000     0.687500000000     0.125000000000     0          
O        O      0.578950000000     0.516450000000     0.312500000000     0          
O        O      0.625000000000     0.500000000000     0.250000000000     0          
O        O      0.546050000000     0.516450000000     0.437500000000     0          
O        O      0.546050000000     0.733550000000     0.062500000000     0          
O        O      0.500000000000     0.500000000000     0.000000000000     0          
O        O      0.578950000000     0.733550000000     0.187500000000     0          
O        O      0.671050000000     0.733550000000     0.187500000000     0          
O        O      0.703950000000     0.733550000000     0.062500000000     0          
O        O      0.703950000000     0.516450000000     0.437500000000     0          
O        O      0.671050000000     0.516450000000     0.312500000000     0          
O        O      0.500000000000     0.562500000000     0.554350000000     0          
O        O      0.703950000000     0.641450000000     0.562500000000     0          
O        O      0.500000000000     0.625000000000     0.500000000000     0          
O        O      0.500000000000     0.687500000000     0.679350000000     0          
O        O      0.671050000000     0.641450000000     0.687500000000     0          
O        O      0.687500000000     0.687500000000     0.625000000000     0          
O        O      0.625000000000     0.687500000000     0.804350000000     0          
O        O      0.671050000000     0.608550000000     0.812500000000     0          
O        O      0.625000000000     0.625000000000     0.750000000000     0          
O        O      0.625000000000     0.562500000000     0.929350000000     0          
O        O      0.703950000000     0.608550000000     0.937500000000     0          
O        O      0.687500000000     0.562500000000     0.875000000000     0          
O        O      0.500000000000     0.687500000000     0.945650000000     0          
O        O      0.625000000000     0.687500000000     0.570650000000     0          
O        O      0.625000000000     0.562500000000     0.695650000000     0          
O        O      0.500000000000     0.562500000000     0.820650000000     0          
O        O      0.546050000000     0.608550000000     0.937500000000     0          
O        O      0.578950000000     0.608550000000     0.812500000000     0          
O        O      0.562500000000     0.562500000000     0.875000000000     0          
O        O      0.578950000000     0.641450000000     0.687500000000     0          
O        O      0.546050000000     0.641450000000     0.562500000000     0          
O        O      0.562500000000     0.687500000000     0.625000000000     0          
O        O      0.578950000000     0.516450000000     0.812500000000     0          
O        O      0.625000000000     0.500000000000     0.750000000000     0          
O        O      0.546050000000     0.516450000000     0.937500000000     0          
O        O      0.546050000000     0.733550000000     0.562500000000     0          
O        O      0.500000000000     0.500000000000     0.500000000000     0          
O        O      0.578950000000     0.733550000000     0.687500000000     0          
O        O      0.671050000000     0.733550000000     0.687500000000     0          
O        O      0.703950000000     0.733550000000     0.562500000000     0          
O        O      0.703950000000     0.516450000000     0.937500000000     0          
O        O      0.671050000000     0.516450000000     0.812500000000     0          
O        O      0.500000000000     0.812500000000     0.054350000000     0          
O        O      0.703950000000     0.891450000000     0.062500000000     0          
O        O      0.500000000000     0.875000000000     0.000000000000     0          
O        O      0.500000000000     0.937500000000     0.179350000000     0          
O        O      0.671050000000     0.891450000000     0.187500000000     0          
O        O      0.687500000000     0.937500000000     0.125000000000     0          
O        O      0.625000000000     0.937500000000     0.304350000000     0          
O        O      0.671050000000     0.858550000000     0.312500000000     0          
O        O      0.625000000000     0.875000000000     0.250000000000     0          
O        O      0.625000000000     0.812500000000     0.429350000000     0          
O        O      0.703950000000     0.858550000000     0.437500000000     0          
O        O      0.687500000000     0.812500000000     0.375000000000     0          
O        O      0.500000000000     0.937500000000     0.445650000000     0          
O        O      0.625000000000     0.937500000000     0.070650000000     0          
O        O      0.625000000000     0.812500000000     0.195650000000     0          
O        O      0.500000000000     0.812500000000     0.320650000000     0          
O        O      0.546050000000     0.858550000000     0.437500000000     0          
O        O      0.578950000000     0.858550000000     0.312500000000     0          
O        O      0.562500000000     0.812500000000     0.375000000000     0          
O        O      0.578950000000     0.891450000000     0.187500000000     0          
O        O      0.546050000000     0.891450000000     0.062500000000     0          
O        O      0.562500000000     0.937500000000     0.125000000000     0          
O        O      0.578950000000     0.766450000000     0.312500000000     0          
O        O      0.625000000000     0.750000000000     0.250000000000     0          
O        O      0.546050000000     0.766450000000     0.437500000000     0          
O        O      0.546050000000     0.983550000000     0.062500000000     0          
O        O      0.500000000000     0.750000000000     0.000000000000     0          
O        O      0.578950000000     0.983550000000     0.187500000000     0          
O        O      0.671050000000     0.983550000000     0.187500000000     0          
O        O      0.703950000000     0.983550000000     0.062500000000     0          
O        O      0.703950000000     0.766450000000     0.437500000000     0          
O        O      0.671050000000     0.766450000000     0.312500000000     0          
O        O      0.500000000000     0.812500000000     0.554350000000     0          
O        O      0.703950000000     0.891450000000     0.562500000000     0          
O        O      0.500000000000     0.875000000000     0.500000000000     0          
O        O      0.500000000000     0.937500000000     0.679350000000     0          
O        O      0.671050000000     0.891450000000     0.687500000000     0          
O        O      0.687500000000     0.937500000000     0.625000000000     0          
O        O      0.625000000000     0.937500000000     0.804350000000     0          
O        O      0.671050000000     0.858550000000     0.812500000000     0          
O        O      0.625000000000     0.875000000000     0.750000000000     0          
O        O      0.625000000000     0.812500000000     0.929350000000     0          
O        O      0.703950000000     0.858550000000     0.937500000000     0          
O        O      0.687500000000     0.812500000000     0.875000000000     0          
O        O      0.500000000000     0.937500000000     0.945650000000     0          
O        O      0.625000000000     0.937500000000     0.570650000000     0          
O        O      0.625000000000     0.812500000000     0.695650000000     0          
O        O      0.500000000000     0.812500000000     0.820650000000     0          
O        O      0.546050000000     0.858550000000     0.937500000000     0          
O        O      0.578950000000     0.858550000000     0.812500000000     0          
O        O      0.562500000000     0.812500000000     0.875000000000     0          
O        O      0.578950000000     0.891450000000     0.687500000000     0          
O        O      0.546050000000     0.891450000000     0.562500000000     0          
O        O      0.562500000000     0.937500000000     0.625000000000     0          
O        O      0.578950000000     0.766450000000     0.812500000000     0          
O        O      0.625000000000     0.750000000000     0.750000000000     0          
O        O      0.546050000000     0.766450000000     0.937500000000     0          
O        O      0.546050000000     0.983550000000     0.562500000000     0          
O        O      0.500000000000     0.750000000000     0.500000000000     0          
O        O      0.578950000000     0.983550000000     0.687500000000     0          
O        O      0.671050000000     0.983550000000     0.687500000000     0          
O        O      0.703950000000     0.983550000000     0.562500000000     0          
O        O      0.703950000000     0.766450000000     0.937500000000     0          
O        O      0.671050000000     0.766450000000     0.812500000000     0          
O        O      0.750000000000     0.062500000000     0.054350000000     0          
O        O      0.953950000000     0.141450000000     0.062500000000     0          
O        O      0.750000000000     0.125000000000     0.000000000000     0          
O        O      0.750000000000     0.187500000000     0.179350000000     0          
O        O      0.921050000000     0.141450000000     0.187500000000     0          
O        O      0.937500000000     0.187500000000     0.125000000000     0          
O        O      0.875000000000     0.187500000000     0.304350000000     0          
O        O      0.921050000000     0.108550000000     0.312500000000     0          
O        O      0.875000000000     0.125000000000     0.250000000000     0          
O        O      0.875000000000     0.062500000000     0.429350000000     0          
O        O      0.953950000000     0.108550000000     0.437500000000     0          
O        O      0.937500000000     0.062500000000     0.375000000000     0          
O        O      0.750000000000     0.187500000000     0.445650000000     0          
O        O      0.875000000000     0.187500000000     0.070650000000     0          
O        O      0.875000000000     0.062500000000     0.195650000000     0          
O        O      0.750000000000     0.062500000000     0.320650000000     0          
O        O      0.796050000000     0.108550000000     0.437500000000     0          
O        O      0.828950000000     0.108550000000     0.312500000000     0          
O        O      0.812500000000     0.062500000000     0.375000000000     0          
O        O      0.828950000000     0.141450000000     0.187500000000     0          
O        O      0.796050000000     0.141450000000     0.062500000000     0          
O        O      0.812500000000     0.187500000000     0.125000000000     0          
O        O      0.828950000000     0.016450000000     0.312500000000     0          
O        O      0.875000000000     0.000000000000     0.250000000000     0          
O        O      0.796050000000     0.016450000000     0.437500000000     0          
O        O      0.796050000000     0.233550000000     0.062500000000     0          
O        O      0.750000000000     0.000000000000     0.000000000000     0          
O        O      0.828950000000     0.233550000000     0.187500000000     0          
O        O      0.921050000000     0.233550000000     0.187500000000     0          
O        O      0.953950000000     0.233550000000     0.062500000000     0          
O        O      0.953950000000     0.016450000000     0.437500000000     0          
O        O      0.921050000000     0.016450000000     0.312500000000     0          
O        O      0.750000000000     0.062500000000     0.554350000000     0          
O        O      0.953950000000     0.141450000000     0.562500000000     0          
O        O      0.750000000000     0.125000000000     0.500000000000     0          
O        O      0.750000000000     0.187500000000     0.679350000000     0          
O        O      0.921050000000     0.141450000000     0.687500000000     0          
O        O      0.937500000000     0.187500000000     0.625000000000     0          
O        O      0.875000000000     0.187500000000     0.804350000000     0          
O        O      0.921050000000     0.108550000000     0.812500000000     0          
O        O      0.875000000000     0.125000000000     0.750000000000     0          
O        O      0.875000000000     0.062500000000     0.929350000000     0          
O        O      0.953950000000     0.108550000000     0.937500000000     0          
O        O      0.937500000000     0.062500000000     0.875000000000     0          
O        O      0.750000000000     0.187500000000     0.945650000000     0          
O        O      0.875000000000     0.187500000000     0.570650000000     0          
O        O      0.875000000000     0.062500000000     0.695650000000     0          
O        O      0.750000000000     0.062500000000     0.820650000000     0          
O        O      0.796050000000     0.108550000000     0.937500000000     0          
O        O      0.828950000000     0.108550000000     0.812500000000     0          
O        O      0.812500000000     0.062500000000     0.875000000000     0          
O        O      0.828950000000     0.141450000000     0.687500000000     0          
O        O      0.796050000000     0.141450000000     0.562500000000     0          
O        O      0.812500000000     0.187500000000     0.625000000000     0          
O        O      0.828950000000     0.016450000000     0.812500000000     0          
O        O      0.875000000000     0.000000000000     0.750000000000     0          
O        O      0.796050000000     0.016450000000     0.937500000000     0          
O        O      0.796050000000     0.233550000000     0.562500000000     0          
O        O      0.750000000000     0.000000000000     0.500000000000     0          
O        O      0.828950000000     0.233550000000     0.687500000000     0          
O        O      0.921050000000     0.233550000000     0.687500000000     0          
O        O      0.953950000000     0.233550000000     0.562500000000     0          
O        O      0.953950000000     0.016450000000     0.937500000000     0          
O        O      0.921050000000     0.016450000000     0.812500000000     0          
O        O      0.750000000000     0.312500000000     0.054350000000     0          
O        O      0.953950000000     0.391450000000     0.062500000000     0          
O        O      0.750000000000     0.375000000000     0.000000000000     0          
O        O      0.750000000000     0.437500000000     0.179350000000     0          
O        O      0.921050000000     0.391450000000     0.187500000000     0          
O        O      0.937500000000     0.437500000000     0.125000000000     0          
O        O      0.875000000000     0.437500000000     0.304350000000     0          
O        O      0.921050000000     0.358550000000     0.312500000000     0          
O        O      0.875000000000     0.375000000000     0.250000000000     0          
O        O      0.875000000000     0.312500000000     0.429350000000     0          
O        O      0.953950000000     0.358550000000     0.437500000000     0          
O        O      0.937500000000     0.312500000000     0.375000000000     0          
O        O      0.750000000000     0.437500000000     0.445650000000     0          
O        O      0.875000000000     0.437500000000     0.070650000000     0          
O        O      0.875000000000     0.312500000000     0.195650000000     0          
O        O      0.750000000000     0.312500000000     0.320650000000     0          
O        O      0.796050000000     0.358550000000     0.437500000000     0          
O        O      0.828950000000     0.358550000000     0.312500000000     0          
O        O      0.812500000000     0.312500000000     0.375000000000     0          
O        O      0.828950000000     0.391450000000     0.187500000000     0          
O        O      0.796050000000     0.391450000000     0.062500000000     0          
O        O      0.812500000000     0.437500000000     0.125000000000     0          
O        O      0.828950000000     0.266450000000     0.312500000000     0          
O        O      0.875000000000     0.250000000000     0.250000000000     0          
O        O      0.796050000000     0.266450000000     0.437500000000     0          
O        O      0.796050000000     0.483550000000     0.062500000000     0          
O        O      0.750000000000     0.250000000000     0.000000000000     0          
O        O      0.828950000000     0.483550000000     0.187500000000     0          
O        O      0.921050000000     0.483550000000     0.187500000000     0          
O        O      0.953950000000     0.483550000000     0.062500000000     0          
O        O      0.953950000000     0.266450000000     0.437500000000     0          
O        O      0.921050000000     0.266450000000     0.312500000000     0          
O        O      0.750000000000     0.312500000000     0.554350000000     0          
O        O      0.953950000000     0.391450000000     0.562500000000     0          
O        O      0.750000000000     0.375000000000     0.500000000000     0          
O        O      0.750000000000     0.437500000000     0.679350000000     0          
O        O      0.921050000000     0.391450000000     0.687500000000     0          
O        O      0.937500000000     0.437500000000     0.625000000000     0          
O        O      0.875000000000     0.437500000000     0.804350000000     0          
O        O      0.921050000000     0.358550000000     0.812500000000     0          
O        O      0.875000000000     0.375000000000     0.750000000000     0          
O        O      0.875000000000     0.312500000000     0.929350000000     0          
O        O      0.953950000000     0.358550000000     0.937500000000     0          
O        O      0.937500000000     0.312500000000     0.875000000000     0          
O        O      0.750000000000     0.437500000000     0.945650000000     0          
O        O      0.875000000000     0.437500000000     0.570650000000     0          
O        O      0.875000000000     0.312500000000     0.695650000000     0          
O        O      0.750000000000     0.312500000000     0.820650000000     0          
O        O      0.796050000000     0.358550000000     0.937500000000     0          
O        O      0.828950000000     0.358550000000     0.812500000000     0          
O        O      0.812500000000     0.312500000000     0.875000000000     0          
O        O      0.828950000000     0.391450000000     0.687500000000     0          
O        O      0.796050000000     0.391450000000     0.562500000000     0          
O        O      0.812500000000     0.437500000000     0.625000000000     0          
O        O      0.828950000000     0.266450000000     0.812500000000     0          
O        O      0.875000000000     0.250000000000     0.750000000000     0          
O        O      0.796050000000     0.266450000000     0.937500000000     0          
O        O      0.796050000000     0.483550000000     0.562500000000     0          
O        O      0.750000000000     0.250000000000     0.500000000000     0          
O        O      0.828950000000     0.483550000000     0.687500000000     0          
O        O      0.921050000000     0.483550000000     0.687500000000     0          
O        O      0.953950000000     0.483550000000     0.562500000000     0          
O        O      0.953950000000     0.266450000000     0.937500000000     0          
O        O      0.921050000000     0.266450000000     0.812500000000     0          
O        O      0.750000000000     0.562500000000     0.054350000000     0          
O        O      0.953950000000     0.641450000000     0.062500000000     0          
O        O      0.750000000000     0.625000000000     0.000000000000     0          
O        O      0.750000000000     0.687500000000     0.179350000000     0          
O        O      0.921050000000     0.641450000000     0.187500000000     0          
O        O      0.937500000000     0.687500000000     0.125000000000     0          
O        O      0.875000000000     0.687500000000     0.304350000000     0          
O        O      0.921050000000     0.608550000000     0.312500000000     0          
O        O      0.875000000000     0.625000000000     0.250000000000     0          
O        O      0.875000000000     0.562500000000     0.429350000000     0          
O        O      0.953950000000     0.608550000000     0.437500000000     0          
O        O      0.937500000000     0.562500000000     0.375000000000     0          
O        O      0.750000000000     0.687500000000     0.445650000000     0          
O        O      0.875000000000     0.687500000000     0.070650000000     0          
O        O      0.875000000000     0.562500000000     0.195650000000     0          
O        O      0.750000000000     0.562500000000     0.320650000000     0          
O        O      0.796050000000     0.608550000000     0.437500000000     0          
O        O      0.828950000000     0.608550000000     0.312500000000     0          
O        O      0.812500000000     0.562500000000     0.375000000000     0          
O        O      0.828950000000     0.641450000000     0.187500000000     0          
O        O      0.796050000000     0.641450000000     0.062500000000     0          
O        O      0.812500000000     0.687500000000     0.125000000000     0          
O        O      0.828950000000     0.516450000000     0.312500000000     0          
O        O      0.875000000000     0.500000000000     0.250000000000     0          
O        O      0.796050000000     0.516450000000     0.437500000000     0          
O        O      0.796050000000     0.733550000000     0.062500000000     0          
O        O      0.750000000000     0.500000000000     0.000000000000     0          
O        O      0.828950000000     0.733550000000     0.187500000000     0          
O        O      0.921050000000     0.733550000000     0.187500000000     0          
O        O      0.953950000000     0.733550000000     0.062500000000     0          
O        O      0.953950000000     0.516450000000     0.437500000000     0          
O        O      0.921050000000     0.516450000000     0.312500000000     0          
O        O      0.750000000000     0.562500000000     0.554350000000     0          
O        O      0.953950000000     0.641450000000     0.562500000000     0          
O        O      0.750000000000     0.625000000000     0.500000000000     0          
O        O      0.750000000000     0.687500000000     0.679350000000     0          
O        O      0.921050000000     0.641450000000     0.687500000000     0          
O        O      0.937500000000     0.687500000000     0.625000000000     0          
O        O      0.875000000000     0.687500000000     0.804350000000     0          
O        O      0.921050000000     0.608550000000     0.812500000000     0          
O        O      0.875000000000     0.625000000000     0.750000000000     0          
O        O      0.875000000000     0.562500000000     0.929350000000     0          
O        O      0.953950000000     0.608550000000     0.937500000000     0          
O        O      0.937500000000     0.562500000000     0.875000000000     0          
O        O      0.750000000000     0.687500000000     0.945650000000     0          
O        O      0.875000000000     0.687500000000     0.570650000000     0          
O        O      0.875000000000     0.562500000000     0.695650000000     0          
O        O      0.750000000000     0.562500000000     0.820650000000     0          
O        O      0.796050000000     0.608550000000     0.937500000000     0          
O        O      0.828950000000     0.608550000000     0.812500000000     0          
O        O      0.812500000000     0.562500000000     0.875000000000     0          
O        O      0.828950000000     0.641450000000     0.687500000000     0          
O        O      0.796050000000     0.641450000000     0.562500000000     0          
O        O      0.812500000000     0.687500000000     0.625000000000     0          
O        O      0.828950000000     0.516450000000     0.812500000000     0          
O        O      0.875000000000     0.500000000000     0.750000000000     0          
O        O      0.796050000000     0.516450000000     0.937500000000     0          
O        O      0.796050000000     0.733550000000     0.562500000000     0          
O        O      0.750000000000     0.500000000000     0.500000000000     0          
O        O      0.828950000000     0.733550000000     0.687500000000     0          
O        O      0.921050000000     0.733550000000     0.687500000000     0          
O        O      0.953950000000     0.733550000000     0.562500000000     0          
O        O      0.953950000000     0.516450000000     0.937500000000     0          
O        O      0.921050000000     0.516450000000     0.812500000000     0          
O        O      0.750000000000     0.812500000000     0.054350000000     0          
O        O      0.953950000000     0.891450000000     0.062500000000     0          
O        O      0.750000000000     0.875000000000     0.000000000000     0          
O        O      0.750000000000     0.937500000000     0.179350000000     0          
O        O      0.921050000000     0.891450000000     0.187500000000     0          
O        O      0.937500000000     0.937500000000     0.125000000000     0          
O        O      0.875000000000     0.937500000000     0.304350000000     0          
O        O      0.921050000000     0.858550000000     0.312500000000     0          
O        O      0.875000000000     0.875000000000     0.250000000000     0          
O        O      0.875000000000     0.812500000000     0.429350000000     0          
O        O      0.953950000000     0.858550000000     0.437500000000     0          
O        O      0.937500000000     0.812500000000     0.375000000000     0          
O        O      0.750000000000     0.937500000000     0.445650000000     0          
O        O      0.875000000000     0.937500000000     0.070650000000     0          
O        O      0.875000000000     0.812500000000     0.195650000000     0          
O        O      0.750000000000     0.812500000000     0.320650000000     0          
O        O      0.796050000000     0.858550000000     0.437500000000     0          
O        O      0.828950000000     0.858550000000     0.312500000000     0          
O        O      0.812500000000     0.812500000000     0.375000000000     0          
O        O      0.828950000000     0.891450000000     0.187500000000     0          
O        O      0.796050000000     0.891450000000     0.062500000000     0          
O        O      0.812500000000     0.937500000000     0.125000000000     0          
O        O      0.828950000000     0.766450000000     0.312500000000     0          
O        O      0.875000000000     0.750000000000     0.250000000000     0          
O        O      0.796050000000     0.766450000000     0.437500000000     0          
O        O      0.796050000000     0.983550000000     0.062500000000     0          
O        O      0.750000000000     0.750000000000     0.000000000000     0          
O        O      0.828950000000     0.983550000000     0.187500000000     0          
O        O      0.921050000000     0.983550000000     0.187500000000     0          
O        O      0.953950000000     0.983550000000     0.062500000000     0          
O        O      0.953950000000     0.766450000000     0.437500000000     0          
O        O      0.921050000000     0.766450000000     0.312500000000     0          
O        O      0.750000000000     0.812500000000     0.554350000000     0          
O        O      0.953950000000     0.891450000000     0.562500000000     0          
O        O      0.750000000000     0.875000000000     0.500000000000     0          
O        O      0.750000000000     0.937500000000     0.679350000000     0          
O        O      0.921050000000     0.891450000000     0.687500000000     0          
O        O      0.937500000000     0.937500000000     0.625000000000     0          
O        O      0.875000000000     0.937500000000     0.804350000000     0          
O        O      0.921050000000     0.858550000000     0.812500000000     0          
O        O      0.875000000000     0.875000000000     0.750000000000     0          
O        O      0.875000000000     0.812500000000     0.929350000000     0          
O        O      0.953950000000     0.858550000000     0.937500000000     0          
O        O      0.937500000000     0.812500000000     0.875000000000     0          
O        O      0.750000000000     0.937500000000     0.945650000000     0          
O        O      0.875000000000     0.937500000000     0.570650000000     0          
O        O      0.875000000000     0.812500000000     0.695650000000     0          
O        O      0.750000000000     0.812500000000     0.820650000000     0          
O        O      0.796050000000     0.858550000000     0.937500000000     0          
O        O      0.828950000000     0.858550000000     0.812500000000     0          
O        O      0.812500000000     0.812500000000     0.875000000000     0          
O        O      0.828950000000     0.891450000000     0.687500000000     0          
O        O      0.796050000000     0.891450000000     0.562500000000     0          
O        O      0.812500000000     0.937500000000     0.625000000000     0          
O        O      0.828950000000     0.766450000000     0.812500000000     0          
O        O      0.875000000000     0.750000000000     0.750000000000     0          
O        O      0.796050000000     0.766450000000     0.937500000000     0          
O        O      0.796050000000     0.983550000000     0.562500000000     0          
O        O      0.750000000000     0.750000000000     0.500000000000     0          
O        O      0.828950000000     0.983550000000     0.687500000000     0          
O        O      0.921050000000     0.983550000000     0.687500000000     0          
O        O      0.953950000000     0.983550000000     0.562500000000     0          
O        O      0.953950000000     0.766450000000     0.937500000000     0          
O        O      0.921050000000     0.766450000000     0.812500000000     0          


