data_zeolite

_audit_creation_method RASPA-1.0
_audit_creation_date 2021-6-7
_audit_author_name ''

_cell_length_a    13.624
_cell_length_b    13.624
_cell_length_c    13.624
_cell_angle_alpha 90
_cell_angle_beta  90
_cell_angle_gamma 90
_cell_volume      20230.4

_symmetry_cell_setting          cubic
_symmetry_space_group_name_Hall 'P 1'
_symmetry_space_group_name_H-M  'P 1'
_symmetry_Int_Tables_number     1

_symmetry_equiv_pos_as_xyz 'x,y,z'

loop_
_atom_site_label
_atom_site_type_symbol
_atom_site_fract_x
_atom_site_fract_y
_atom_site_fract_z
_atom_site_charge
T        Si     0.056850000000     0.056850000000     0.056850000000     0          
T        Si     0.375000000000     0.125000000000     0.125000000000     0          
T        Si     0.443150000000     0.056850000000     0.056850000000     0          
T        Si     0.375000000000     0.375000000000     0.125000000000     0          
T        Si     0.443150000000     0.443150000000     0.056850000000     0          
T        Si     0.125000000000     0.375000000000     0.125000000000     0          
T        Si     0.056850000000     0.443150000000     0.056850000000     0          
T        Si     0.125000000000     0.125000000000     0.125000000000     0          
T        Si     0.056850000000     0.443150000000     0.443150000000     0          
T        Si     0.375000000000     0.375000000000     0.375000000000     0          
T        Si     0.056850000000     0.056850000000     0.443150000000     0          
T        Si     0.125000000000     0.375000000000     0.375000000000     0          
T        Si     0.443150000000     0.056850000000     0.443150000000     0          
T        Si     0.125000000000     0.125000000000     0.375000000000     0          
T        Si     0.443150000000     0.443150000000     0.443150000000     0          
T        Si     0.375000000000     0.125000000000     0.375000000000     0          
T        Si     0.056850000000     0.306850000000     0.306850000000     0          
T        Si     0.443150000000     0.306850000000     0.306850000000     0          
T        Si     0.443150000000     0.193150000000     0.306850000000     0          
T        Si     0.056850000000     0.193150000000     0.306850000000     0          
T        Si     0.056850000000     0.193150000000     0.193150000000     0          
T        Si     0.056850000000     0.306850000000     0.193150000000     0          
T        Si     0.443150000000     0.306850000000     0.193150000000     0          
T        Si     0.443150000000     0.193150000000     0.193150000000     0          
T        Si     0.306850000000     0.056850000000     0.306850000000     0          
T        Si     0.193150000000     0.056850000000     0.306850000000     0          
T        Si     0.193150000000     0.443150000000     0.306850000000     0          
T        Si     0.306850000000     0.443150000000     0.306850000000     0          
T        Si     0.306850000000     0.443150000000     0.193150000000     0          
T        Si     0.306850000000     0.056850000000     0.193150000000     0          
T        Si     0.193150000000     0.056850000000     0.193150000000     0          
T        Si     0.193150000000     0.443150000000     0.193150000000     0          
T        Si     0.306850000000     0.306850000000     0.056850000000     0          
T        Si     0.193150000000     0.306850000000     0.056850000000     0          
T        Si     0.193150000000     0.193150000000     0.056850000000     0          
T        Si     0.306850000000     0.193150000000     0.056850000000     0          
T        Si     0.306850000000     0.193150000000     0.443150000000     0          
T        Si     0.306850000000     0.306850000000     0.443150000000     0          
T        Si     0.193150000000     0.306850000000     0.443150000000     0          
T        Si     0.193150000000     0.193150000000     0.443150000000     0          
T        Si     0.056850000000     0.056850000000     0.556850000000     0          
T        Si     0.375000000000     0.125000000000     0.625000000000     0          
T        Si     0.443150000000     0.056850000000     0.556850000000     0          
T        Si     0.375000000000     0.375000000000     0.625000000000     0          
T        Si     0.443150000000     0.443150000000     0.556850000000     0          
T        Si     0.125000000000     0.375000000000     0.625000000000     0          
T        Si     0.056850000000     0.443150000000     0.556850000000     0          
T        Si     0.125000000000     0.125000000000     0.625000000000     0          
T        Si     0.056850000000     0.443150000000     0.943150000000     0          
T        Si     0.375000000000     0.375000000000     0.875000000000     0          
T        Si     0.056850000000     0.056850000000     0.943150000000     0          
T        Si     0.125000000000     0.375000000000     0.875000000000     0          
T        Si     0.443150000000     0.056850000000     0.943150000000     0          
T        Si     0.125000000000     0.125000000000     0.875000000000     0          
T        Si     0.443150000000     0.443150000000     0.943150000000     0          
T        Si     0.375000000000     0.125000000000     0.875000000000     0          
T        Si     0.056850000000     0.306850000000     0.806850000000     0          
T        Si     0.443150000000     0.306850000000     0.806850000000     0          
T        Si     0.443150000000     0.193150000000     0.806850000000     0          
T        Si     0.056850000000     0.193150000000     0.806850000000     0          
T        Si     0.056850000000     0.193150000000     0.693150000000     0          
T        Si     0.056850000000     0.306850000000     0.693150000000     0          
T        Si     0.443150000000     0.306850000000     0.693150000000     0          
T        Si     0.443150000000     0.193150000000     0.693150000000     0          
T        Si     0.306850000000     0.056850000000     0.806850000000     0          
T        Si     0.193150000000     0.056850000000     0.806850000000     0          
T        Si     0.193150000000     0.443150000000     0.806850000000     0          
T        Si     0.306850000000     0.443150000000     0.806850000000     0          
T        Si     0.306850000000     0.443150000000     0.693150000000     0          
T        Si     0.306850000000     0.056850000000     0.693150000000     0          
T        Si     0.193150000000     0.056850000000     0.693150000000     0          
T        Si     0.193150000000     0.443150000000     0.693150000000     0          
T        Si     0.306850000000     0.306850000000     0.556850000000     0          
T        Si     0.193150000000     0.306850000000     0.556850000000     0          
T        Si     0.193150000000     0.193150000000     0.556850000000     0          
T        Si     0.306850000000     0.193150000000     0.556850000000     0          
T        Si     0.306850000000     0.193150000000     0.943150000000     0          
T        Si     0.306850000000     0.306850000000     0.943150000000     0          
T        Si     0.193150000000     0.306850000000     0.943150000000     0          
T        Si     0.193150000000     0.193150000000     0.943150000000     0          
T        Si     0.056850000000     0.556850000000     0.056850000000     0          
T        Si     0.375000000000     0.625000000000     0.125000000000     0          
T        Si     0.443150000000     0.556850000000     0.056850000000     0          
T        Si     0.375000000000     0.875000000000     0.125000000000     0          
T        Si     0.443150000000     0.943150000000     0.056850000000     0          
T        Si     0.125000000000     0.875000000000     0.125000000000     0          
T        Si     0.056850000000     0.943150000000     0.056850000000     0          
T        Si     0.125000000000     0.625000000000     0.125000000000     0          
T        Si     0.056850000000     0.943150000000     0.443150000000     0          
T        Si     0.375000000000     0.875000000000     0.375000000000     0          
T        Si     0.056850000000     0.556850000000     0.443150000000     0          
T        Si     0.125000000000     0.875000000000     0.375000000000     0          
T        Si     0.443150000000     0.556850000000     0.443150000000     0          
T        Si     0.125000000000     0.625000000000     0.375000000000     0          
T        Si     0.443150000000     0.943150000000     0.443150000000     0          
T        Si     0.375000000000     0.625000000000     0.375000000000     0          
T        Si     0.056850000000     0.806850000000     0.306850000000     0          
T        Si     0.443150000000     0.806850000000     0.306850000000     0          
T        Si     0.443150000000     0.693150000000     0.306850000000     0          
T        Si     0.056850000000     0.693150000000     0.306850000000     0          
T        Si     0.056850000000     0.693150000000     0.193150000000     0          
T        Si     0.056850000000     0.806850000000     0.193150000000     0          
T        Si     0.443150000000     0.806850000000     0.193150000000     0          
T        Si     0.443150000000     0.693150000000     0.193150000000     0          
T        Si     0.306850000000     0.556850000000     0.306850000000     0          
T        Si     0.193150000000     0.556850000000     0.306850000000     0          
T        Si     0.193150000000     0.943150000000     0.306850000000     0          
T        Si     0.306850000000     0.943150000000     0.306850000000     0          
T        Si     0.306850000000     0.943150000000     0.193150000000     0          
T        Si     0.306850000000     0.556850000000     0.193150000000     0          
T        Si     0.193150000000     0.556850000000     0.193150000000     0          
T        Si     0.193150000000     0.943150000000     0.193150000000     0          
T        Si     0.306850000000     0.806850000000     0.056850000000     0          
T        Si     0.193150000000     0.806850000000     0.056850000000     0          
T        Si     0.193150000000     0.693150000000     0.056850000000     0          
T        Si     0.306850000000     0.693150000000     0.056850000000     0          
T        Si     0.306850000000     0.693150000000     0.443150000000     0          
T        Si     0.306850000000     0.806850000000     0.443150000000     0          
T        Si     0.193150000000     0.806850000000     0.443150000000     0          
T        Si     0.193150000000     0.693150000000     0.443150000000     0          
T        Si     0.056850000000     0.556850000000     0.556850000000     0          
T        Si     0.375000000000     0.625000000000     0.625000000000     0          
T        Si     0.443150000000     0.556850000000     0.556850000000     0          
T        Si     0.375000000000     0.875000000000     0.625000000000     0          
T        Si     0.443150000000     0.943150000000     0.556850000000     0          
T        Si     0.125000000000     0.875000000000     0.625000000000     0          
T        Si     0.056850000000     0.943150000000     0.556850000000     0          
T        Si     0.125000000000     0.625000000000     0.625000000000     0          
T        Si     0.056850000000     0.943150000000     0.943150000000     0          
T        Si     0.375000000000     0.875000000000     0.875000000000     0          
T        Si     0.056850000000     0.556850000000     0.943150000000     0          
T        Si     0.125000000000     0.875000000000     0.875000000000     0          
T        Si     0.443150000000     0.556850000000     0.943150000000     0          
T        Si     0.125000000000     0.625000000000     0.875000000000     0          
T        Si     0.443150000000     0.943150000000     0.943150000000     0          
T        Si     0.375000000000     0.625000000000     0.875000000000     0          
T        Si     0.056850000000     0.806850000000     0.806850000000     0          
T        Si     0.443150000000     0.806850000000     0.806850000000     0          
T        Si     0.443150000000     0.693150000000     0.806850000000     0          
T        Si     0.056850000000     0.693150000000     0.806850000000     0          
T        Si     0.056850000000     0.693150000000     0.693150000000     0          
T        Si     0.056850000000     0.806850000000     0.693150000000     0          
T        Si     0.443150000000     0.806850000000     0.693150000000     0          
T        Si     0.443150000000     0.693150000000     0.693150000000     0          
T        Si     0.306850000000     0.556850000000     0.806850000000     0          
T        Si     0.193150000000     0.556850000000     0.806850000000     0          
T        Si     0.193150000000     0.943150000000     0.806850000000     0          
T        Si     0.306850000000     0.943150000000     0.806850000000     0          
T        Si     0.306850000000     0.943150000000     0.693150000000     0          
T        Si     0.306850000000     0.556850000000     0.693150000000     0          
T        Si     0.193150000000     0.556850000000     0.693150000000     0          
T        Si     0.193150000000     0.943150000000     0.693150000000     0          
T        Si     0.306850000000     0.806850000000     0.556850000000     0          
T        Si     0.193150000000     0.806850000000     0.556850000000     0          
T        Si     0.193150000000     0.693150000000     0.556850000000     0          
T        Si     0.306850000000     0.693150000000     0.556850000000     0          
T        Si     0.306850000000     0.693150000000     0.943150000000     0          
T        Si     0.306850000000     0.806850000000     0.943150000000     0          
T        Si     0.193150000000     0.806850000000     0.943150000000     0          
T        Si     0.193150000000     0.693150000000     0.943150000000     0          
T        Si     0.556850000000     0.056850000000     0.056850000000     0          
T        Si     0.875000000000     0.125000000000     0.125000000000     0          
T        Si     0.943150000000     0.056850000000     0.056850000000     0          
T        Si     0.875000000000     0.375000000000     0.125000000000     0          
T        Si     0.943150000000     0.443150000000     0.056850000000     0          
T        Si     0.625000000000     0.375000000000     0.125000000000     0          
T        Si     0.556850000000     0.443150000000     0.056850000000     0          
T        Si     0.625000000000     0.125000000000     0.125000000000     0          
T        Si     0.556850000000     0.443150000000     0.443150000000     0          
T        Si     0.875000000000     0.375000000000     0.375000000000     0          
T        Si     0.556850000000     0.056850000000     0.443150000000     0          
T        Si     0.625000000000     0.375000000000     0.375000000000     0          
T        Si     0.943150000000     0.056850000000     0.443150000000     0          
T        Si     0.625000000000     0.125000000000     0.375000000000     0          
T        Si     0.943150000000     0.443150000000     0.443150000000     0          
T        Si     0.875000000000     0.125000000000     0.375000000000     0          
T        Si     0.556850000000     0.306850000000     0.306850000000     0          
T        Si     0.943150000000     0.306850000000     0.306850000000     0          
T        Si     0.943150000000     0.193150000000     0.306850000000     0          
T        Si     0.556850000000     0.193150000000     0.306850000000     0          
T        Si     0.556850000000     0.193150000000     0.193150000000     0          
T        Si     0.556850000000     0.306850000000     0.193150000000     0          
T        Si     0.943150000000     0.306850000000     0.193150000000     0          
T        Si     0.943150000000     0.193150000000     0.193150000000     0          
T        Si     0.806850000000     0.056850000000     0.306850000000     0          
T        Si     0.693150000000     0.056850000000     0.306850000000     0          
T        Si     0.693150000000     0.443150000000     0.306850000000     0          
T        Si     0.806850000000     0.443150000000     0.306850000000     0          
T        Si     0.806850000000     0.443150000000     0.193150000000     0          
T        Si     0.806850000000     0.056850000000     0.193150000000     0          
T        Si     0.693150000000     0.056850000000     0.193150000000     0          
T        Si     0.693150000000     0.443150000000     0.193150000000     0          
T        Si     0.806850000000     0.306850000000     0.056850000000     0          
T        Si     0.693150000000     0.306850000000     0.056850000000     0          
T        Si     0.693150000000     0.193150000000     0.056850000000     0          
T        Si     0.806850000000     0.193150000000     0.056850000000     0          
T        Si     0.806850000000     0.193150000000     0.443150000000     0          
T        Si     0.806850000000     0.306850000000     0.443150000000     0          
T        Si     0.693150000000     0.306850000000     0.443150000000     0          
T        Si     0.693150000000     0.193150000000     0.443150000000     0          
T        Si     0.556850000000     0.056850000000     0.556850000000     0          
T        Si     0.875000000000     0.125000000000     0.625000000000     0          
T        Si     0.943150000000     0.056850000000     0.556850000000     0          
T        Si     0.875000000000     0.375000000000     0.625000000000     0          
T        Si     0.943150000000     0.443150000000     0.556850000000     0          
T        Si     0.625000000000     0.375000000000     0.625000000000     0          
T        Si     0.556850000000     0.443150000000     0.556850000000     0          
T        Si     0.625000000000     0.125000000000     0.625000000000     0          
T        Si     0.556850000000     0.443150000000     0.943150000000     0          
T        Si     0.875000000000     0.375000000000     0.875000000000     0          
T        Si     0.556850000000     0.056850000000     0.943150000000     0          
T        Si     0.625000000000     0.375000000000     0.875000000000     0          
T        Si     0.943150000000     0.056850000000     0.943150000000     0          
T        Si     0.625000000000     0.125000000000     0.875000000000     0          
T        Si     0.943150000000     0.443150000000     0.943150000000     0          
T        Si     0.875000000000     0.125000000000     0.875000000000     0          
T        Si     0.556850000000     0.306850000000     0.806850000000     0          
T        Si     0.943150000000     0.306850000000     0.806850000000     0          
T        Si     0.943150000000     0.193150000000     0.806850000000     0          
T        Si     0.556850000000     0.193150000000     0.806850000000     0          
T        Si     0.556850000000     0.193150000000     0.693150000000     0          
T        Si     0.556850000000     0.306850000000     0.693150000000     0          
T        Si     0.943150000000     0.306850000000     0.693150000000     0          
T        Si     0.943150000000     0.193150000000     0.693150000000     0          
T        Si     0.806850000000     0.056850000000     0.806850000000     0          
T        Si     0.693150000000     0.056850000000     0.806850000000     0          
T        Si     0.693150000000     0.443150000000     0.806850000000     0          
T        Si     0.806850000000     0.443150000000     0.806850000000     0          
T        Si     0.806850000000     0.443150000000     0.693150000000     0          
T        Si     0.806850000000     0.056850000000     0.693150000000     0          
T        Si     0.693150000000     0.056850000000     0.693150000000     0          
T        Si     0.693150000000     0.443150000000     0.693150000000     0          
T        Si     0.806850000000     0.306850000000     0.556850000000     0          
T        Si     0.693150000000     0.306850000000     0.556850000000     0          
T        Si     0.693150000000     0.193150000000     0.556850000000     0          
T        Si     0.806850000000     0.193150000000     0.556850000000     0          
T        Si     0.806850000000     0.193150000000     0.943150000000     0          
T        Si     0.806850000000     0.306850000000     0.943150000000     0          
T        Si     0.693150000000     0.306850000000     0.943150000000     0          
T        Si     0.693150000000     0.193150000000     0.943150000000     0          
T        Si     0.556850000000     0.556850000000     0.056850000000     0          
T        Si     0.875000000000     0.625000000000     0.125000000000     0          
T        Si     0.943150000000     0.556850000000     0.056850000000     0          
T        Si     0.875000000000     0.875000000000     0.125000000000     0          
T        Si     0.943150000000     0.943150000000     0.056850000000     0          
T        Si     0.625000000000     0.875000000000     0.125000000000     0          
T        Si     0.556850000000     0.943150000000     0.056850000000     0          
T        Si     0.625000000000     0.625000000000     0.125000000000     0          
T        Si     0.556850000000     0.943150000000     0.443150000000     0          
T        Si     0.875000000000     0.875000000000     0.375000000000     0          
T        Si     0.556850000000     0.556850000000     0.443150000000     0          
T        Si     0.625000000000     0.875000000000     0.375000000000     0          
T        Si     0.943150000000     0.556850000000     0.443150000000     0          
T        Si     0.625000000000     0.625000000000     0.375000000000     0          
T        Si     0.943150000000     0.943150000000     0.443150000000     0          
T        Si     0.875000000000     0.625000000000     0.375000000000     0          
T        Si     0.556850000000     0.806850000000     0.306850000000     0          
T        Si     0.943150000000     0.806850000000     0.306850000000     0          
T        Si     0.943150000000     0.693150000000     0.306850000000     0          
T        Si     0.556850000000     0.693150000000     0.306850000000     0          
T        Si     0.556850000000     0.693150000000     0.193150000000     0          
T        Si     0.556850000000     0.806850000000     0.193150000000     0          
T        Si     0.943150000000     0.806850000000     0.193150000000     0          
T        Si     0.943150000000     0.693150000000     0.193150000000     0          
T        Si     0.806850000000     0.556850000000     0.306850000000     0          
T        Si     0.693150000000     0.556850000000     0.306850000000     0          
T        Si     0.693150000000     0.943150000000     0.306850000000     0          
T        Si     0.806850000000     0.943150000000     0.306850000000     0          
T        Si     0.806850000000     0.943150000000     0.193150000000     0          
T        Si     0.806850000000     0.556850000000     0.193150000000     0          
T        Si     0.693150000000     0.556850000000     0.193150000000     0          
T        Si     0.693150000000     0.943150000000     0.193150000000     0          
T        Si     0.806850000000     0.806850000000     0.056850000000     0          
T        Si     0.693150000000     0.806850000000     0.056850000000     0          
T        Si     0.693150000000     0.693150000000     0.056850000000     0          
T        Si     0.806850000000     0.693150000000     0.056850000000     0          
T        Si     0.806850000000     0.693150000000     0.443150000000     0          
T        Si     0.806850000000     0.806850000000     0.443150000000     0          
T        Si     0.693150000000     0.806850000000     0.443150000000     0          
T        Si     0.693150000000     0.693150000000     0.443150000000     0          
T        Si     0.556850000000     0.556850000000     0.556850000000     0          
T        Si     0.875000000000     0.625000000000     0.625000000000     0          
T        Si     0.943150000000     0.556850000000     0.556850000000     0          
T        Si     0.875000000000     0.875000000000     0.625000000000     0          
T        Si     0.943150000000     0.943150000000     0.556850000000     0          
T        Si     0.625000000000     0.875000000000     0.625000000000     0          
T        Si     0.556850000000     0.943150000000     0.556850000000     0          
T        Si     0.625000000000     0.625000000000     0.625000000000     0          
T        Si     0.556850000000     0.943150000000     0.943150000000     0          
T        Si     0.875000000000     0.875000000000     0.875000000000     0          
T        Si     0.556850000000     0.556850000000     0.943150000000     0          
T        Si     0.625000000000     0.875000000000     0.875000000000     0          
T        Si     0.943150000000     0.556850000000     0.943150000000     0          
T        Si     0.625000000000     0.625000000000     0.875000000000     0          
T        Si     0.943150000000     0.943150000000     0.943150000000     0          
T        Si     0.875000000000     0.625000000000     0.875000000000     0          
T        Si     0.556850000000     0.806850000000     0.806850000000     0          
T        Si     0.943150000000     0.806850000000     0.806850000000     0          
T        Si     0.943150000000     0.693150000000     0.806850000000     0          
T        Si     0.556850000000     0.693150000000     0.806850000000     0          
T        Si     0.556850000000     0.693150000000     0.693150000000     0          
T        Si     0.556850000000     0.806850000000     0.693150000000     0          
T        Si     0.943150000000     0.806850000000     0.693150000000     0          
T        Si     0.943150000000     0.693150000000     0.693150000000     0          
T        Si     0.806850000000     0.556850000000     0.806850000000     0          
T        Si     0.693150000000     0.556850000000     0.806850000000     0          
T        Si     0.693150000000     0.943150000000     0.806850000000     0          
T        Si     0.806850000000     0.943150000000     0.806850000000     0          
T        Si     0.806850000000     0.943150000000     0.693150000000     0          
T        Si     0.806850000000     0.556850000000     0.693150000000     0          
T        Si     0.693150000000     0.556850000000     0.693150000000     0          
T        Si     0.693150000000     0.943150000000     0.693150000000     0          
T        Si     0.806850000000     0.806850000000     0.556850000000     0          
T        Si     0.693150000000     0.806850000000     0.556850000000     0          
T        Si     0.693150000000     0.693150000000     0.556850000000     0          
T        Si     0.806850000000     0.693150000000     0.556850000000     0          
T        Si     0.806850000000     0.693150000000     0.943150000000     0          
T        Si     0.806850000000     0.806850000000     0.943150000000     0          
T        Si     0.693150000000     0.806850000000     0.943150000000     0          
T        Si     0.693150000000     0.693150000000     0.943150000000     0          
O        O      0.068250000000     0.068250000000     0.000000000000     0          
O        O      0.090900000000     0.090900000000     0.090900000000     0          
O        O      0.431750000000     0.068250000000     0.000000000000     0          
O        O      0.409100000000     0.090900000000     0.090900000000     0          
O        O      0.431750000000     0.431750000000     0.000000000000     0          
O        O      0.409100000000     0.409100000000     0.090900000000     0          
O        O      0.068250000000     0.431750000000     0.000000000000     0          
O        O      0.090900000000     0.409100000000     0.090900000000     0          
O        O      0.090900000000     0.409100000000     0.409100000000     0          
O        O      0.090900000000     0.090900000000     0.409100000000     0          
O        O      0.409100000000     0.090900000000     0.409100000000     0          
O        O      0.409100000000     0.409100000000     0.409100000000     0          
O        O      0.000000000000     0.068250000000     0.068250000000     0          
O        O      0.431750000000     0.000000000000     0.068250000000     0          
O        O      0.000000000000     0.431750000000     0.068250000000     0          
O        O      0.068250000000     0.000000000000     0.068250000000     0          
O        O      0.000000000000     0.431750000000     0.431750000000     0          
O        O      0.068250000000     0.000000000000     0.431750000000     0          
O        O      0.000000000000     0.068250000000     0.431750000000     0          
O        O      0.431750000000     0.000000000000     0.431750000000     0          
O        O      0.068250000000     0.318250000000     0.250000000000     0          
O        O      0.090900000000     0.340900000000     0.340900000000     0          
O        O      0.431750000000     0.318250000000     0.250000000000     0          
O        O      0.409100000000     0.340900000000     0.340900000000     0          
O        O      0.431750000000     0.181750000000     0.250000000000     0          
O        O      0.409100000000     0.159100000000     0.340900000000     0          
O        O      0.068250000000     0.181750000000     0.250000000000     0          
O        O      0.090900000000     0.159100000000     0.340900000000     0          
O        O      0.090900000000     0.159100000000     0.159100000000     0          
O        O      0.090900000000     0.340900000000     0.159100000000     0          
O        O      0.409100000000     0.340900000000     0.159100000000     0          
O        O      0.409100000000     0.159100000000     0.159100000000     0          
O        O      0.000000000000     0.318250000000     0.318250000000     0          
O        O      0.431750000000     0.250000000000     0.318250000000     0          
O        O      0.000000000000     0.181750000000     0.318250000000     0          
O        O      0.068250000000     0.250000000000     0.318250000000     0          
O        O      0.000000000000     0.181750000000     0.181750000000     0          
O        O      0.068250000000     0.250000000000     0.181750000000     0          
O        O      0.000000000000     0.318250000000     0.181750000000     0          
O        O      0.431750000000     0.250000000000     0.181750000000     0          
O        O      0.318250000000     0.068250000000     0.250000000000     0          
O        O      0.340900000000     0.090900000000     0.340900000000     0          
O        O      0.181750000000     0.068250000000     0.250000000000     0          
O        O      0.159100000000     0.090900000000     0.340900000000     0          
O        O      0.181750000000     0.431750000000     0.250000000000     0          
O        O      0.159100000000     0.409100000000     0.340900000000     0          
O        O      0.318250000000     0.431750000000     0.250000000000     0          
O        O      0.340900000000     0.409100000000     0.340900000000     0          
O        O      0.340900000000     0.409100000000     0.159100000000     0          
O        O      0.340900000000     0.090900000000     0.159100000000     0          
O        O      0.159100000000     0.090900000000     0.159100000000     0          
O        O      0.159100000000     0.409100000000     0.159100000000     0          
O        O      0.250000000000     0.068250000000     0.318250000000     0          
O        O      0.181750000000     0.000000000000     0.318250000000     0          
O        O      0.250000000000     0.431750000000     0.318250000000     0          
O        O      0.318250000000     0.000000000000     0.318250000000     0          
O        O      0.250000000000     0.431750000000     0.181750000000     0          
O        O      0.318250000000     0.000000000000     0.181750000000     0          
O        O      0.250000000000     0.068250000000     0.181750000000     0          
O        O      0.181750000000     0.000000000000     0.181750000000     0          
O        O      0.318250000000     0.318250000000     0.000000000000     0          
O        O      0.340900000000     0.340900000000     0.090900000000     0          
O        O      0.181750000000     0.318250000000     0.000000000000     0          
O        O      0.159100000000     0.340900000000     0.090900000000     0          
O        O      0.181750000000     0.181750000000     0.000000000000     0          
O        O      0.159100000000     0.159100000000     0.090900000000     0          
O        O      0.318250000000     0.181750000000     0.000000000000     0          
O        O      0.340900000000     0.159100000000     0.090900000000     0          
O        O      0.340900000000     0.159100000000     0.409100000000     0          
O        O      0.340900000000     0.340900000000     0.409100000000     0          
O        O      0.159100000000     0.340900000000     0.409100000000     0          
O        O      0.159100000000     0.159100000000     0.409100000000     0          
O        O      0.250000000000     0.318250000000     0.068250000000     0          
O        O      0.181750000000     0.250000000000     0.068250000000     0          
O        O      0.250000000000     0.181750000000     0.068250000000     0          
O        O      0.318250000000     0.250000000000     0.068250000000     0          
O        O      0.250000000000     0.181750000000     0.431750000000     0          
O        O      0.318250000000     0.250000000000     0.431750000000     0          
O        O      0.250000000000     0.318250000000     0.431750000000     0          
O        O      0.181750000000     0.250000000000     0.431750000000     0          
O        O      0.068250000000     0.068250000000     0.500000000000     0          
O        O      0.090900000000     0.090900000000     0.590900000000     0          
O        O      0.431750000000     0.068250000000     0.500000000000     0          
O        O      0.409100000000     0.090900000000     0.590900000000     0          
O        O      0.431750000000     0.431750000000     0.500000000000     0          
O        O      0.409100000000     0.409100000000     0.590900000000     0          
O        O      0.068250000000     0.431750000000     0.500000000000     0          
O        O      0.090900000000     0.409100000000     0.590900000000     0          
O        O      0.090900000000     0.409100000000     0.909100000000     0          
O        O      0.090900000000     0.090900000000     0.909100000000     0          
O        O      0.409100000000     0.090900000000     0.909100000000     0          
O        O      0.409100000000     0.409100000000     0.909100000000     0          
O        O      0.000000000000     0.068250000000     0.568250000000     0          
O        O      0.431750000000     0.000000000000     0.568250000000     0          
O        O      0.000000000000     0.431750000000     0.568250000000     0          
O        O      0.068250000000     0.000000000000     0.568250000000     0          
O        O      0.000000000000     0.431750000000     0.931750000000     0          
O        O      0.068250000000     0.000000000000     0.931750000000     0          
O        O      0.000000000000     0.068250000000     0.931750000000     0          
O        O      0.431750000000     0.000000000000     0.931750000000     0          
O        O      0.068250000000     0.318250000000     0.750000000000     0          
O        O      0.090900000000     0.340900000000     0.840900000000     0          
O        O      0.431750000000     0.318250000000     0.750000000000     0          
O        O      0.409100000000     0.340900000000     0.840900000000     0          
O        O      0.431750000000     0.181750000000     0.750000000000     0          
O        O      0.409100000000     0.159100000000     0.840900000000     0          
O        O      0.068250000000     0.181750000000     0.750000000000     0          
O        O      0.090900000000     0.159100000000     0.840900000000     0          
O        O      0.090900000000     0.159100000000     0.659100000000     0          
O        O      0.090900000000     0.340900000000     0.659100000000     0          
O        O      0.409100000000     0.340900000000     0.659100000000     0          
O        O      0.409100000000     0.159100000000     0.659100000000     0          
O        O      0.000000000000     0.318250000000     0.818250000000     0          
O        O      0.431750000000     0.250000000000     0.818250000000     0          
O        O      0.000000000000     0.181750000000     0.818250000000     0          
O        O      0.068250000000     0.250000000000     0.818250000000     0          
O        O      0.000000000000     0.181750000000     0.681750000000     0          
O        O      0.068250000000     0.250000000000     0.681750000000     0          
O        O      0.000000000000     0.318250000000     0.681750000000     0          
O        O      0.431750000000     0.250000000000     0.681750000000     0          
O        O      0.318250000000     0.068250000000     0.750000000000     0          
O        O      0.340900000000     0.090900000000     0.840900000000     0          
O        O      0.181750000000     0.068250000000     0.750000000000     0          
O        O      0.159100000000     0.090900000000     0.840900000000     0          
O        O      0.181750000000     0.431750000000     0.750000000000     0          
O        O      0.159100000000     0.409100000000     0.840900000000     0          
O        O      0.318250000000     0.431750000000     0.750000000000     0          
O        O      0.340900000000     0.409100000000     0.840900000000     0          
O        O      0.340900000000     0.409100000000     0.659100000000     0          
O        O      0.340900000000     0.090900000000     0.659100000000     0          
O        O      0.159100000000     0.090900000000     0.659100000000     0          
O        O      0.159100000000     0.409100000000     0.659100000000     0          
O        O      0.250000000000     0.068250000000     0.818250000000     0          
O        O      0.181750000000     0.000000000000     0.818250000000     0          
O        O      0.250000000000     0.431750000000     0.818250000000     0          
O        O      0.318250000000     0.000000000000     0.818250000000     0          
O        O      0.250000000000     0.431750000000     0.681750000000     0          
O        O      0.318250000000     0.000000000000     0.681750000000     0          
O        O      0.250000000000     0.068250000000     0.681750000000     0          
O        O      0.181750000000     0.000000000000     0.681750000000     0          
O        O      0.318250000000     0.318250000000     0.500000000000     0          
O        O      0.340900000000     0.340900000000     0.590900000000     0          
O        O      0.181750000000     0.318250000000     0.500000000000     0          
O        O      0.159100000000     0.340900000000     0.590900000000     0          
O        O      0.181750000000     0.181750000000     0.500000000000     0          
O        O      0.159100000000     0.159100000000     0.590900000000     0          
O        O      0.318250000000     0.181750000000     0.500000000000     0          
O        O      0.340900000000     0.159100000000     0.590900000000     0          
O        O      0.340900000000     0.159100000000     0.909100000000     0          
O        O      0.340900000000     0.340900000000     0.909100000000     0          
O        O      0.159100000000     0.340900000000     0.909100000000     0          
O        O      0.159100000000     0.159100000000     0.909100000000     0          
O        O      0.250000000000     0.318250000000     0.568250000000     0          
O        O      0.181750000000     0.250000000000     0.568250000000     0          
O        O      0.250000000000     0.181750000000     0.568250000000     0          
O        O      0.318250000000     0.250000000000     0.568250000000     0          
O        O      0.250000000000     0.181750000000     0.931750000000     0          
O        O      0.318250000000     0.250000000000     0.931750000000     0          
O        O      0.250000000000     0.318250000000     0.931750000000     0          
O        O      0.181750000000     0.250000000000     0.931750000000     0          
O        O      0.068250000000     0.568250000000     0.000000000000     0          
O        O      0.090900000000     0.590900000000     0.090900000000     0          
O        O      0.431750000000     0.568250000000     0.000000000000     0          
O        O      0.409100000000     0.590900000000     0.090900000000     0          
O        O      0.431750000000     0.931750000000     0.000000000000     0          
O        O      0.409100000000     0.909100000000     0.090900000000     0          
O        O      0.068250000000     0.931750000000     0.000000000000     0          
O        O      0.090900000000     0.909100000000     0.090900000000     0          
O        O      0.090900000000     0.909100000000     0.409100000000     0          
O        O      0.090900000000     0.590900000000     0.409100000000     0          
O        O      0.409100000000     0.590900000000     0.409100000000     0          
O        O      0.409100000000     0.909100000000     0.409100000000     0          
O        O      0.000000000000     0.568250000000     0.068250000000     0          
O        O      0.431750000000     0.500000000000     0.068250000000     0          
O        O      0.000000000000     0.931750000000     0.068250000000     0          
O        O      0.068250000000     0.500000000000     0.068250000000     0          
O        O      0.000000000000     0.931750000000     0.431750000000     0          
O        O      0.068250000000     0.500000000000     0.431750000000     0          
O        O      0.000000000000     0.568250000000     0.431750000000     0          
O        O      0.431750000000     0.500000000000     0.431750000000     0          
O        O      0.068250000000     0.818250000000     0.250000000000     0          
O        O      0.090900000000     0.840900000000     0.340900000000     0          
O        O      0.431750000000     0.818250000000     0.250000000000     0          
O        O      0.409100000000     0.840900000000     0.340900000000     0          
O        O      0.431750000000     0.681750000000     0.250000000000     0          
O        O      0.409100000000     0.659100000000     0.340900000000     0          
O        O      0.068250000000     0.681750000000     0.250000000000     0          
O        O      0.090900000000     0.659100000000     0.340900000000     0          
O        O      0.090900000000     0.659100000000     0.159100000000     0          
O        O      0.090900000000     0.840900000000     0.159100000000     0          
O        O      0.409100000000     0.840900000000     0.159100000000     0          
O        O      0.409100000000     0.659100000000     0.159100000000     0          
O        O      0.000000000000     0.818250000000     0.318250000000     0          
O        O      0.431750000000     0.750000000000     0.318250000000     0          
O        O      0.000000000000     0.681750000000     0.318250000000     0          
O        O      0.068250000000     0.750000000000     0.318250000000     0          
O        O      0.000000000000     0.681750000000     0.181750000000     0          
O        O      0.068250000000     0.750000000000     0.181750000000     0          
O        O      0.000000000000     0.818250000000     0.181750000000     0          
O        O      0.431750000000     0.750000000000     0.181750000000     0          
O        O      0.318250000000     0.568250000000     0.250000000000     0          
O        O      0.340900000000     0.590900000000     0.340900000000     0          
O        O      0.181750000000     0.568250000000     0.250000000000     0          
O        O      0.159100000000     0.590900000000     0.340900000000     0          
O        O      0.181750000000     0.931750000000     0.250000000000     0          
O        O      0.159100000000     0.909100000000     0.340900000000     0          
O        O      0.318250000000     0.931750000000     0.250000000000     0          
O        O      0.340900000000     0.909100000000     0.340900000000     0          
O        O      0.340900000000     0.909100000000     0.159100000000     0          
O        O      0.340900000000     0.590900000000     0.159100000000     0          
O        O      0.159100000000     0.590900000000     0.159100000000     0          
O        O      0.159100000000     0.909100000000     0.159100000000     0          
O        O      0.250000000000     0.568250000000     0.318250000000     0          
O        O      0.181750000000     0.500000000000     0.318250000000     0          
O        O      0.250000000000     0.931750000000     0.318250000000     0          
O        O      0.318250000000     0.500000000000     0.318250000000     0          
O        O      0.250000000000     0.931750000000     0.181750000000     0          
O        O      0.318250000000     0.500000000000     0.181750000000     0          
O        O      0.250000000000     0.568250000000     0.181750000000     0          
O        O      0.181750000000     0.500000000000     0.181750000000     0          
O        O      0.318250000000     0.818250000000     0.000000000000     0          
O        O      0.340900000000     0.840900000000     0.090900000000     0          
O        O      0.181750000000     0.818250000000     0.000000000000     0          
O        O      0.159100000000     0.840900000000     0.090900000000     0          
O        O      0.181750000000     0.681750000000     0.000000000000     0          
O        O      0.159100000000     0.659100000000     0.090900000000     0          
O        O      0.318250000000     0.681750000000     0.000000000000     0          
O        O      0.340900000000     0.659100000000     0.090900000000     0          
O        O      0.340900000000     0.659100000000     0.409100000000     0          
O        O      0.340900000000     0.840900000000     0.409100000000     0          
O        O      0.159100000000     0.840900000000     0.409100000000     0          
O        O      0.159100000000     0.659100000000     0.409100000000     0          
O        O      0.250000000000     0.818250000000     0.068250000000     0          
O        O      0.181750000000     0.750000000000     0.068250000000     0          
O        O      0.250000000000     0.681750000000     0.068250000000     0          
O        O      0.318250000000     0.750000000000     0.068250000000     0          
O        O      0.250000000000     0.681750000000     0.431750000000     0          
O        O      0.318250000000     0.750000000000     0.431750000000     0          
O        O      0.250000000000     0.818250000000     0.431750000000     0          
O        O      0.181750000000     0.750000000000     0.431750000000     0          
O        O      0.068250000000     0.568250000000     0.500000000000     0          
O        O      0.090900000000     0.590900000000     0.590900000000     0          
O        O      0.431750000000     0.568250000000     0.500000000000     0          
O        O      0.409100000000     0.590900000000     0.590900000000     0          
O        O      0.431750000000     0.931750000000     0.500000000000     0          
O        O      0.409100000000     0.909100000000     0.590900000000     0          
O        O      0.068250000000     0.931750000000     0.500000000000     0          
O        O      0.090900000000     0.909100000000     0.590900000000     0          
O        O      0.090900000000     0.909100000000     0.909100000000     0          
O        O      0.090900000000     0.590900000000     0.909100000000     0          
O        O      0.409100000000     0.590900000000     0.909100000000     0          
O        O      0.409100000000     0.909100000000     0.909100000000     0          
O        O      0.000000000000     0.568250000000     0.568250000000     0          
O        O      0.431750000000     0.500000000000     0.568250000000     0          
O        O      0.000000000000     0.931750000000     0.568250000000     0          
O        O      0.068250000000     0.500000000000     0.568250000000     0          
O        O      0.000000000000     0.931750000000     0.931750000000     0          
O        O      0.068250000000     0.500000000000     0.931750000000     0          
O        O      0.000000000000     0.568250000000     0.931750000000     0          
O        O      0.431750000000     0.500000000000     0.931750000000     0          
O        O      0.068250000000     0.818250000000     0.750000000000     0          
O        O      0.090900000000     0.840900000000     0.840900000000     0          
O        O      0.431750000000     0.818250000000     0.750000000000     0          
O        O      0.409100000000     0.840900000000     0.840900000000     0          
O        O      0.431750000000     0.681750000000     0.750000000000     0          
O        O      0.409100000000     0.659100000000     0.840900000000     0          
O        O      0.068250000000     0.681750000000     0.750000000000     0          
O        O      0.090900000000     0.659100000000     0.840900000000     0          
O        O      0.090900000000     0.659100000000     0.659100000000     0          
O        O      0.090900000000     0.840900000000     0.659100000000     0          
O        O      0.409100000000     0.840900000000     0.659100000000     0          
O        O      0.409100000000     0.659100000000     0.659100000000     0          
O        O      0.000000000000     0.818250000000     0.818250000000     0          
O        O      0.431750000000     0.750000000000     0.818250000000     0          
O        O      0.000000000000     0.681750000000     0.818250000000     0          
O        O      0.068250000000     0.750000000000     0.818250000000     0          
O        O      0.000000000000     0.681750000000     0.681750000000     0          
O        O      0.068250000000     0.750000000000     0.681750000000     0          
O        O      0.000000000000     0.818250000000     0.681750000000     0          
O        O      0.431750000000     0.750000000000     0.681750000000     0          
O        O      0.318250000000     0.568250000000     0.750000000000     0          
O        O      0.340900000000     0.590900000000     0.840900000000     0          
O        O      0.181750000000     0.568250000000     0.750000000000     0          
O        O      0.159100000000     0.590900000000     0.840900000000     0          
O        O      0.181750000000     0.931750000000     0.750000000000     0          
O        O      0.159100000000     0.909100000000     0.840900000000     0          
O        O      0.318250000000     0.931750000000     0.750000000000     0          
O        O      0.340900000000     0.909100000000     0.840900000000     0          
O        O      0.340900000000     0.909100000000     0.659100000000     0          
O        O      0.340900000000     0.590900000000     0.659100000000     0          
O        O      0.159100000000     0.590900000000     0.659100000000     0          
O        O      0.159100000000     0.909100000000     0.659100000000     0          
O        O      0.250000000000     0.568250000000     0.818250000000     0          
O        O      0.181750000000     0.500000000000     0.818250000000     0          
O        O      0.250000000000     0.931750000000     0.818250000000     0          
O        O      0.318250000000     0.500000000000     0.818250000000     0          
O        O      0.250000000000     0.931750000000     0.681750000000     0          
O        O      0.318250000000     0.500000000000     0.681750000000     0          
O        O      0.250000000000     0.568250000000     0.681750000000     0          
O        O      0.181750000000     0.500000000000     0.681750000000     0          
O        O      0.318250000000     0.818250000000     0.500000000000     0          
O        O      0.340900000000     0.840900000000     0.590900000000     0          
O        O      0.181750000000     0.818250000000     0.500000000000     0          
O        O      0.159100000000     0.840900000000     0.590900000000     0          
O        O      0.181750000000     0.681750000000     0.500000000000     0          
O        O      0.159100000000     0.659100000000     0.590900000000     0          
O        O      0.318250000000     0.681750000000     0.500000000000     0          
O        O      0.340900000000     0.659100000000     0.590900000000     0          
O        O      0.340900000000     0.659100000000     0.909100000000     0          
O        O      0.340900000000     0.840900000000     0.909100000000     0          
O        O      0.159100000000     0.840900000000     0.909100000000     0          
O        O      0.159100000000     0.659100000000     0.909100000000     0          
O        O      0.250000000000     0.818250000000     0.568250000000     0          
O        O      0.181750000000     0.750000000000     0.568250000000     0          
O        O      0.250000000000     0.681750000000     0.568250000000     0          
O        O      0.318250000000     0.750000000000     0.568250000000     0          
O        O      0.250000000000     0.681750000000     0.931750000000     0          
O        O      0.318250000000     0.750000000000     0.931750000000     0          
O        O      0.250000000000     0.818250000000     0.931750000000     0          
O        O      0.181750000000     0.750000000000     0.931750000000     0          
O        O      0.568250000000     0.068250000000     0.000000000000     0          
O        O      0.590900000000     0.090900000000     0.090900000000     0          
O        O      0.931750000000     0.068250000000     0.000000000000     0          
O        O      0.909100000000     0.090900000000     0.090900000000     0          
O        O      0.931750000000     0.431750000000     0.000000000000     0          
O        O      0.909100000000     0.409100000000     0.090900000000     0          
O        O      0.568250000000     0.431750000000     0.000000000000     0          
O        O      0.590900000000     0.409100000000     0.090900000000     0          
O        O      0.590900000000     0.409100000000     0.409100000000     0          
O        O      0.590900000000     0.090900000000     0.409100000000     0          
O        O      0.909100000000     0.090900000000     0.409100000000     0          
O        O      0.909100000000     0.409100000000     0.409100000000     0          
O        O      0.500000000000     0.068250000000     0.068250000000     0          
O        O      0.931750000000     0.000000000000     0.068250000000     0          
O        O      0.500000000000     0.431750000000     0.068250000000     0          
O        O      0.568250000000     0.000000000000     0.068250000000     0          
O        O      0.500000000000     0.431750000000     0.431750000000     0          
O        O      0.568250000000     0.000000000000     0.431750000000     0          
O        O      0.500000000000     0.068250000000     0.431750000000     0          
O        O      0.931750000000     0.000000000000     0.431750000000     0          
O        O      0.568250000000     0.318250000000     0.250000000000     0          
O        O      0.590900000000     0.340900000000     0.340900000000     0          
O        O      0.931750000000     0.318250000000     0.250000000000     0          
O        O      0.909100000000     0.340900000000     0.340900000000     0          
O        O      0.931750000000     0.181750000000     0.250000000000     0          
O        O      0.909100000000     0.159100000000     0.340900000000     0          
O        O      0.568250000000     0.181750000000     0.250000000000     0          
O        O      0.590900000000     0.159100000000     0.340900000000     0          
O        O      0.590900000000     0.159100000000     0.159100000000     0          
O        O      0.590900000000     0.340900000000     0.159100000000     0          
O        O      0.909100000000     0.340900000000     0.159100000000     0          
O        O      0.909100000000     0.159100000000     0.159100000000     0          
O        O      0.500000000000     0.318250000000     0.318250000000     0          
O        O      0.931750000000     0.250000000000     0.318250000000     0          
O        O      0.500000000000     0.181750000000     0.318250000000     0          
O        O      0.568250000000     0.250000000000     0.318250000000     0          
O        O      0.500000000000     0.181750000000     0.181750000000     0          
O        O      0.568250000000     0.250000000000     0.181750000000     0          
O        O      0.500000000000     0.318250000000     0.181750000000     0          
O        O      0.931750000000     0.250000000000     0.181750000000     0          
O        O      0.818250000000     0.068250000000     0.250000000000     0          
O        O      0.840900000000     0.090900000000     0.340900000000     0          
O        O      0.681750000000     0.068250000000     0.250000000000     0          
O        O      0.659100000000     0.090900000000     0.340900000000     0          
O        O      0.681750000000     0.431750000000     0.250000000000     0          
O        O      0.659100000000     0.409100000000     0.340900000000     0          
O        O      0.818250000000     0.431750000000     0.250000000000     0          
O        O      0.840900000000     0.409100000000     0.340900000000     0          
O        O      0.840900000000     0.409100000000     0.159100000000     0          
O        O      0.840900000000     0.090900000000     0.159100000000     0          
O        O      0.659100000000     0.090900000000     0.159100000000     0          
O        O      0.659100000000     0.409100000000     0.159100000000     0          
O        O      0.750000000000     0.068250000000     0.318250000000     0          
O        O      0.681750000000     0.000000000000     0.318250000000     0          
O        O      0.750000000000     0.431750000000     0.318250000000     0          
O        O      0.818250000000     0.000000000000     0.318250000000     0          
O        O      0.750000000000     0.431750000000     0.181750000000     0          
O        O      0.818250000000     0.000000000000     0.181750000000     0          
O        O      0.750000000000     0.068250000000     0.181750000000     0          
O        O      0.681750000000     0.000000000000     0.181750000000     0          
O        O      0.818250000000     0.318250000000     0.000000000000     0          
O        O      0.840900000000     0.340900000000     0.090900000000     0          
O        O      0.681750000000     0.318250000000     0.000000000000     0          
O        O      0.659100000000     0.340900000000     0.090900000000     0          
O        O      0.681750000000     0.181750000000     0.000000000000     0          
O        O      0.659100000000     0.159100000000     0.090900000000     0          
O        O      0.818250000000     0.181750000000     0.000000000000     0          
O        O      0.840900000000     0.159100000000     0.090900000000     0          
O        O      0.840900000000     0.159100000000     0.409100000000     0          
O        O      0.840900000000     0.340900000000     0.409100000000     0          
O        O      0.659100000000     0.340900000000     0.409100000000     0          
O        O      0.659100000000     0.159100000000     0.409100000000     0          
O        O      0.750000000000     0.318250000000     0.068250000000     0          
O        O      0.681750000000     0.250000000000     0.068250000000     0          
O        O      0.750000000000     0.181750000000     0.068250000000     0          
O        O      0.818250000000     0.250000000000     0.068250000000     0          
O        O      0.750000000000     0.181750000000     0.431750000000     0          
O        O      0.818250000000     0.250000000000     0.431750000000     0          
O        O      0.750000000000     0.318250000000     0.431750000000     0          
O        O      0.681750000000     0.250000000000     0.431750000000     0          
O        O      0.568250000000     0.068250000000     0.500000000000     0          
O        O      0.590900000000     0.090900000000     0.590900000000     0          
O        O      0.931750000000     0.068250000000     0.500000000000     0          
O        O      0.909100000000     0.090900000000     0.590900000000     0          
O        O      0.931750000000     0.431750000000     0.500000000000     0          
O        O      0.909100000000     0.409100000000     0.590900000000     0          
O        O      0.568250000000     0.431750000000     0.500000000000     0          
O        O      0.590900000000     0.409100000000     0.590900000000     0          
O        O      0.590900000000     0.409100000000     0.909100000000     0          
O        O      0.590900000000     0.090900000000     0.909100000000     0          
O        O      0.909100000000     0.090900000000     0.909100000000     0          
O        O      0.909100000000     0.409100000000     0.909100000000     0          
O        O      0.500000000000     0.068250000000     0.568250000000     0          
O        O      0.931750000000     0.000000000000     0.568250000000     0          
O        O      0.500000000000     0.431750000000     0.568250000000     0          
O        O      0.568250000000     0.000000000000     0.568250000000     0          
O        O      0.500000000000     0.431750000000     0.931750000000     0          
O        O      0.568250000000     0.000000000000     0.931750000000     0          
O        O      0.500000000000     0.068250000000     0.931750000000     0          
O        O      0.931750000000     0.000000000000     0.931750000000     0          
O        O      0.568250000000     0.318250000000     0.750000000000     0          
O        O      0.590900000000     0.340900000000     0.840900000000     0          
O        O      0.931750000000     0.318250000000     0.750000000000     0          
O        O      0.909100000000     0.340900000000     0.840900000000     0          
O        O      0.931750000000     0.181750000000     0.750000000000     0          
O        O      0.909100000000     0.159100000000     0.840900000000     0          
O        O      0.568250000000     0.181750000000     0.750000000000     0          
O        O      0.590900000000     0.159100000000     0.840900000000     0          
O        O      0.590900000000     0.159100000000     0.659100000000     0          
O        O      0.590900000000     0.340900000000     0.659100000000     0          
O        O      0.909100000000     0.340900000000     0.659100000000     0          
O        O      0.909100000000     0.159100000000     0.659100000000     0          
O        O      0.500000000000     0.318250000000     0.818250000000     0          
O        O      0.931750000000     0.250000000000     0.818250000000     0          
O        O      0.500000000000     0.181750000000     0.818250000000     0          
O        O      0.568250000000     0.250000000000     0.818250000000     0          
O        O      0.500000000000     0.181750000000     0.681750000000     0          
O        O      0.568250000000     0.250000000000     0.681750000000     0          
O        O      0.500000000000     0.318250000000     0.681750000000     0          
O        O      0.931750000000     0.250000000000     0.681750000000     0          
O        O      0.818250000000     0.068250000000     0.750000000000     0          
O        O      0.840900000000     0.090900000000     0.840900000000     0          
O        O      0.681750000000     0.068250000000     0.750000000000     0          
O        O      0.659100000000     0.090900000000     0.840900000000     0          
O        O      0.681750000000     0.431750000000     0.750000000000     0          
O        O      0.659100000000     0.409100000000     0.840900000000     0          
O        O      0.818250000000     0.431750000000     0.750000000000     0          
O        O      0.840900000000     0.409100000000     0.840900000000     0          
O        O      0.840900000000     0.409100000000     0.659100000000     0          
O        O      0.840900000000     0.090900000000     0.659100000000     0          
O        O      0.659100000000     0.090900000000     0.659100000000     0          
O        O      0.659100000000     0.409100000000     0.659100000000     0          
O        O      0.750000000000     0.068250000000     0.818250000000     0          
O        O      0.681750000000     0.000000000000     0.818250000000     0          
O        O      0.750000000000     0.431750000000     0.818250000000     0          
O        O      0.818250000000     0.000000000000     0.818250000000     0          
O        O      0.750000000000     0.431750000000     0.681750000000     0          
O        O      0.818250000000     0.000000000000     0.681750000000     0          
O        O      0.750000000000     0.068250000000     0.681750000000     0          
O        O      0.681750000000     0.000000000000     0.681750000000     0          
O        O      0.818250000000     0.318250000000     0.500000000000     0          
O        O      0.840900000000     0.340900000000     0.590900000000     0          
O        O      0.681750000000     0.318250000000     0.500000000000     0          
O        O      0.659100000000     0.340900000000     0.590900000000     0          
O        O      0.681750000000     0.181750000000     0.500000000000     0          
O        O      0.659100000000     0.159100000000     0.590900000000     0          
O        O      0.818250000000     0.181750000000     0.500000000000     0          
O        O      0.840900000000     0.159100000000     0.590900000000     0          
O        O      0.840900000000     0.159100000000     0.909100000000     0          
O        O      0.840900000000     0.340900000000     0.909100000000     0          
O        O      0.659100000000     0.340900000000     0.909100000000     0          
O        O      0.659100000000     0.159100000000     0.909100000000     0          
O        O      0.750000000000     0.318250000000     0.568250000000     0          
O        O      0.681750000000     0.250000000000     0.568250000000     0          
O        O      0.750000000000     0.181750000000     0.568250000000     0          
O        O      0.818250000000     0.250000000000     0.568250000000     0          
O        O      0.750000000000     0.181750000000     0.931750000000     0          
O        O      0.818250000000     0.250000000000     0.931750000000     0          
O        O      0.750000000000     0.318250000000     0.931750000000     0          
O        O      0.681750000000     0.250000000000     0.931750000000     0          
O        O      0.568250000000     0.568250000000     0.000000000000     0          
O        O      0.590900000000     0.590900000000     0.090900000000     0          
O        O      0.931750000000     0.568250000000     0.000000000000     0          
O        O      0.909100000000     0.590900000000     0.090900000000     0          
O        O      0.931750000000     0.931750000000     0.000000000000     0          
O        O      0.909100000000     0.909100000000     0.090900000000     0          
O        O      0.568250000000     0.931750000000     0.000000000000     0          
O        O      0.590900000000     0.909100000000     0.090900000000     0          
O        O      0.590900000000     0.909100000000     0.409100000000     0          
O        O      0.590900000000     0.590900000000     0.409100000000     0          
O        O      0.909100000000     0.590900000000     0.409100000000     0          
O        O      0.909100000000     0.909100000000     0.409100000000     0          
O        O      0.500000000000     0.568250000000     0.068250000000     0          
O        O      0.931750000000     0.500000000000     0.068250000000     0          
O        O      0.500000000000     0.931750000000     0.068250000000     0          
O        O      0.568250000000     0.500000000000     0.068250000000     0          
O        O      0.500000000000     0.931750000000     0.431750000000     0          
O        O      0.568250000000     0.500000000000     0.431750000000     0          
O        O      0.500000000000     0.568250000000     0.431750000000     0          
O        O      0.931750000000     0.500000000000     0.431750000000     0          
O        O      0.568250000000     0.818250000000     0.250000000000     0          
O        O      0.590900000000     0.840900000000     0.340900000000     0          
O        O      0.931750000000     0.818250000000     0.250000000000     0          
O        O      0.909100000000     0.840900000000     0.340900000000     0          
O        O      0.931750000000     0.681750000000     0.250000000000     0          
O        O      0.909100000000     0.659100000000     0.340900000000     0          
O        O      0.568250000000     0.681750000000     0.250000000000     0          
O        O      0.590900000000     0.659100000000     0.340900000000     0          
O        O      0.590900000000     0.659100000000     0.159100000000     0          
O        O      0.590900000000     0.840900000000     0.159100000000     0          
O        O      0.909100000000     0.840900000000     0.159100000000     0          
O        O      0.909100000000     0.659100000000     0.159100000000     0          
O        O      0.500000000000     0.818250000000     0.318250000000     0          
O        O      0.931750000000     0.750000000000     0.318250000000     0          
O        O      0.500000000000     0.681750000000     0.318250000000     0          
O        O      0.568250000000     0.750000000000     0.318250000000     0          
O        O      0.500000000000     0.681750000000     0.181750000000     0          
O        O      0.568250000000     0.750000000000     0.181750000000     0          
O        O      0.500000000000     0.818250000000     0.181750000000     0          
O        O      0.931750000000     0.750000000000     0.181750000000     0          
O        O      0.818250000000     0.568250000000     0.250000000000     0          
O        O      0.840900000000     0.590900000000     0.340900000000     0          
O        O      0.681750000000     0.568250000000     0.250000000000     0          
O        O      0.659100000000     0.590900000000     0.340900000000     0          
O        O      0.681750000000     0.931750000000     0.250000000000     0          
O        O      0.659100000000     0.909100000000     0.340900000000     0          
O        O      0.818250000000     0.931750000000     0.250000000000     0          
O        O      0.840900000000     0.909100000000     0.340900000000     0          
O        O      0.840900000000     0.909100000000     0.159100000000     0          
O        O      0.840900000000     0.590900000000     0.159100000000     0          
O        O      0.659100000000     0.590900000000     0.159100000000     0          
O        O      0.659100000000     0.909100000000     0.159100000000     0          
O        O      0.750000000000     0.568250000000     0.318250000000     0          
O        O      0.681750000000     0.500000000000     0.318250000000     0          
O        O      0.750000000000     0.931750000000     0.318250000000     0          
O        O      0.818250000000     0.500000000000     0.318250000000     0          
O        O      0.750000000000     0.931750000000     0.181750000000     0          
O        O      0.818250000000     0.500000000000     0.181750000000     0          
O        O      0.750000000000     0.568250000000     0.181750000000     0          
O        O      0.681750000000     0.500000000000     0.181750000000     0          
O        O      0.818250000000     0.818250000000     0.000000000000     0          
O        O      0.840900000000     0.840900000000     0.090900000000     0          
O        O      0.681750000000     0.818250000000     0.000000000000     0          
O        O      0.659100000000     0.840900000000     0.090900000000     0          
O        O      0.681750000000     0.681750000000     0.000000000000     0          
O        O      0.659100000000     0.659100000000     0.090900000000     0          
O        O      0.818250000000     0.681750000000     0.000000000000     0          
O        O      0.840900000000     0.659100000000     0.090900000000     0          
O        O      0.840900000000     0.659100000000     0.409100000000     0          
O        O      0.840900000000     0.840900000000     0.409100000000     0          
O        O      0.659100000000     0.840900000000     0.409100000000     0          
O        O      0.659100000000     0.659100000000     0.409100000000     0          
O        O      0.750000000000     0.818250000000     0.068250000000     0          
O        O      0.681750000000     0.750000000000     0.068250000000     0          
O        O      0.750000000000     0.681750000000     0.068250000000     0          
O        O      0.818250000000     0.750000000000     0.068250000000     0          
O        O      0.750000000000     0.681750000000     0.431750000000     0          
O        O      0.818250000000     0.750000000000     0.431750000000     0          
O        O      0.750000000000     0.818250000000     0.431750000000     0          
O        O      0.681750000000     0.750000000000     0.431750000000     0          
O        O      0.568250000000     0.568250000000     0.500000000000     0          
O        O      0.590900000000     0.590900000000     0.590900000000     0          
O        O      0.931750000000     0.568250000000     0.500000000000     0          
O        O      0.909100000000     0.590900000000     0.590900000000     0          
O        O      0.931750000000     0.931750000000     0.500000000000     0          
O        O      0.909100000000     0.909100000000     0.590900000000     0          
O        O      0.568250000000     0.931750000000     0.500000000000     0          
O        O      0.590900000000     0.909100000000     0.590900000000     0          
O        O      0.590900000000     0.909100000000     0.909100000000     0          
O        O      0.590900000000     0.590900000000     0.909100000000     0          
O        O      0.909100000000     0.590900000000     0.909100000000     0          
O        O      0.909100000000     0.909100000000     0.909100000000     0          
O        O      0.500000000000     0.568250000000     0.568250000000     0          
O        O      0.931750000000     0.500000000000     0.568250000000     0          
O        O      0.500000000000     0.931750000000     0.568250000000     0          
O        O      0.568250000000     0.500000000000     0.568250000000     0          
O        O      0.500000000000     0.931750000000     0.931750000000     0          
O        O      0.568250000000     0.500000000000     0.931750000000     0          
O        O      0.500000000000     0.568250000000     0.931750000000     0          
O        O      0.931750000000     0.500000000000     0.931750000000     0          
O        O      0.568250000000     0.818250000000     0.750000000000     0          
O        O      0.590900000000     0.840900000000     0.840900000000     0          
O        O      0.931750000000     0.818250000000     0.750000000000     0          
O        O      0.909100000000     0.840900000000     0.840900000000     0          
O        O      0.931750000000     0.681750000000     0.750000000000     0          
O        O      0.909100000000     0.659100000000     0.840900000000     0          
O        O      0.568250000000     0.681750000000     0.750000000000     0          
O        O      0.590900000000     0.659100000000     0.840900000000     0          
O        O      0.590900000000     0.659100000000     0.659100000000     0          
O        O      0.590900000000     0.840900000000     0.659100000000     0          
O        O      0.909100000000     0.840900000000     0.659100000000     0          
O        O      0.909100000000     0.659100000000     0.659100000000     0          
O        O      0.500000000000     0.818250000000     0.818250000000     0          
O        O      0.931750000000     0.750000000000     0.818250000000     0          
O        O      0.500000000000     0.681750000000     0.818250000000     0          
O        O      0.568250000000     0.750000000000     0.818250000000     0          
O        O      0.500000000000     0.681750000000     0.681750000000     0          
O        O      0.568250000000     0.750000000000     0.681750000000     0          
O        O      0.500000000000     0.818250000000     0.681750000000     0          
O        O      0.931750000000     0.750000000000     0.681750000000     0          
O        O      0.818250000000     0.568250000000     0.750000000000     0          
O        O      0.840900000000     0.590900000000     0.840900000000     0          
O        O      0.681750000000     0.568250000000     0.750000000000     0          
O        O      0.659100000000     0.590900000000     0.840900000000     0          
O        O      0.681750000000     0.931750000000     0.750000000000     0          
O        O      0.659100000000     0.909100000000     0.840900000000     0          
O        O      0.818250000000     0.931750000000     0.750000000000     0          
O        O      0.840900000000     0.909100000000     0.840900000000     0          
O        O      0.840900000000     0.909100000000     0.659100000000     0          
O        O      0.840900000000     0.590900000000     0.659100000000     0          
O        O      0.659100000000     0.590900000000     0.659100000000     0          
O        O      0.659100000000     0.909100000000     0.659100000000     0          
O        O      0.750000000000     0.568250000000     0.818250000000     0          
O        O      0.681750000000     0.500000000000     0.818250000000     0          
O        O      0.750000000000     0.931750000000     0.818250000000     0          
O        O      0.818250000000     0.500000000000     0.818250000000     0          
O        O      0.750000000000     0.931750000000     0.681750000000     0          
O        O      0.818250000000     0.500000000000     0.681750000000     0          
O        O      0.750000000000     0.568250000000     0.681750000000     0          
O        O      0.681750000000     0.500000000000     0.681750000000     0          
O        O      0.818250000000     0.818250000000     0.500000000000     0          
O        O      0.840900000000     0.840900000000     0.590900000000     0          
O        O      0.681750000000     0.818250000000     0.500000000000     0          
O        O      0.659100000000     0.840900000000     0.590900000000     0          
O        O      0.681750000000     0.681750000000     0.500000000000     0          
O        O      0.659100000000     0.659100000000     0.590900000000     0          
O        O      0.818250000000     0.681750000000     0.500000000000     0          
O        O      0.840900000000     0.659100000000     0.590900000000     0          
O        O      0.840900000000     0.659100000000     0.909100000000     0          
O        O      0.840900000000     0.840900000000     0.909100000000     0          
O        O      0.659100000000     0.840900000000     0.909100000000     0          
O        O      0.659100000000     0.659100000000     0.909100000000     0          
O        O      0.750000000000     0.818250000000     0.568250000000     0          
O        O      0.681750000000     0.750000000000     0.568250000000     0          
O        O      0.750000000000     0.681750000000     0.568250000000     0          
O        O      0.818250000000     0.750000000000     0.568250000000     0          
O        O      0.750000000000     0.681750000000     0.931750000000     0          
O        O      0.818250000000     0.750000000000     0.931750000000     0          
O        O      0.750000000000     0.818250000000     0.931750000000     0          
O        O      0.681750000000     0.750000000000     0.931750000000     0          


