data_zeolite

_audit_creation_method RASPA-1.0
_audit_creation_date 2022-1-6
_audit_author_name ''

_cell_length_a    13.7021
_cell_length_b    14.3565
_cell_length_c    17.1308
_cell_angle_alpha 90
_cell_angle_beta  128.416
_cell_angle_gamma 90
_cell_volume      31684.3

_symmetry_cell_setting          monoclinic
_symmetry_space_group_name_Hall 'P 1'
_symmetry_space_group_name_H-M  'P 1'
_symmetry_Int_Tables_number     1

_symmetry_equiv_pos_as_xyz 'x,y,z'

loop_
_atom_site_label
_atom_site_type_symbol
_atom_site_fract_x
_atom_site_fract_y
_atom_site_fract_z
_atom_site_charge
T        Si     0.111136666667     0.218680000000     0.024660000000     0          
T        Si     0.197596666667     0.054545000000     0.161325000000     0          
T        Si     0.148113333333     0.052700000000     0.048540000000     0          
T        Si     0.097596666667     0.288540000000     0.254950000000     0          
T        Si     0.093453333333     0.398885000000     0.074250000000     0          
T        Si     0.203216666667     0.189550000000     0.071825000000     0          
T        Si     0.075383333333     0.023945000000     0.164070000000     0          
T        Si     0.125346666667     0.095845000000     0.152760000000     0          
T        Si     0.085046666667     0.121265000000     0.044020000000     0          
T        Si     0.331513333333     0.173435000000     0.235250000000     0          
T        Si     0.003803333333     0.265555000000     0.190680000000     0          
T        Si     0.186306666667     0.108600000000     0.004205000000     0          
T        Si     0.222196666667     0.468680000000     0.225340000000     0          
T        Si     0.135736666667     0.304545000000     0.088675000000     0          
T        Si     0.185220000000     0.302700000000     0.201460000000     0          
T        Si     0.235736666667     0.038540000000     0.495050000000     0          
T        Si     0.239880000000     0.148885000000     0.175750000000     0          
T        Si     0.130116666667     0.439550000000     0.178175000000     0          
T        Si     0.257950000000     0.273945000000     0.085930000000     0          
T        Si     0.207986666667     0.345845000000     0.097240000000     0          
T        Si     0.248286666667     0.371265000000     0.205980000000     0          
T        Si     0.001820000000     0.423435000000     0.014750000000     0          
T        Si     0.329530000000     0.015555000000     0.059320000000     0          
T        Si     0.147026666667     0.358600000000     0.245795000000     0          
T        Si     0.222196666667     0.281320000000     0.475340000000     0          
T        Si     0.135736666667     0.445455000000     0.338675000000     0          
T        Si     0.185220000000     0.447300000000     0.451460000000     0          
T        Si     0.235736666667     0.211460000000     0.245050000000     0          
T        Si     0.239880000000     0.101115000000     0.425750000000     0          
T        Si     0.130116666667     0.310450000000     0.428175000000     0          
T        Si     0.257950000000     0.476055000000     0.335930000000     0          
T        Si     0.207986666667     0.404155000000     0.347240000000     0          
T        Si     0.248286666667     0.378735000000     0.455980000000     0          
T        Si     0.001820000000     0.326565000000     0.264750000000     0          
T        Si     0.329530000000     0.234445000000     0.309320000000     0          
T        Si     0.147026666667     0.391400000000     0.495795000000     0          
T        Si     0.111136666667     0.031320000000     0.274660000000     0          
T        Si     0.197596666667     0.195455000000     0.411325000000     0          
T        Si     0.148113333333     0.197300000000     0.298540000000     0          
T        Si     0.097596666667     0.461460000000     0.004950000000     0          
T        Si     0.093453333333     0.351115000000     0.324250000000     0          
T        Si     0.203216666667     0.060450000000     0.321825000000     0          
T        Si     0.075383333333     0.226055000000     0.414070000000     0          
T        Si     0.125346666667     0.154155000000     0.402760000000     0          
T        Si     0.085046666667     0.128735000000     0.294020000000     0          
T        Si     0.331513333333     0.076565000000     0.485250000000     0          
T        Si     0.003803333333     0.484445000000     0.440680000000     0          
T        Si     0.186306666667     0.141400000000     0.254205000000     0          
T        Si     0.111136666667     0.218680000000     0.524660000000     0          
T        Si     0.197596666667     0.054545000000     0.661325000000     0          
T        Si     0.148113333333     0.052700000000     0.548540000000     0          
T        Si     0.097596666667     0.288540000000     0.754950000000     0          
T        Si     0.093453333333     0.398885000000     0.574250000000     0          
T        Si     0.203216666667     0.189550000000     0.571825000000     0          
T        Si     0.075383333333     0.023945000000     0.664070000000     0          
T        Si     0.125346666667     0.095845000000     0.652760000000     0          
T        Si     0.085046666667     0.121265000000     0.544020000000     0          
T        Si     0.331513333333     0.173435000000     0.735250000000     0          
T        Si     0.003803333333     0.265555000000     0.690680000000     0          
T        Si     0.186306666667     0.108600000000     0.504205000000     0          
T        Si     0.222196666667     0.468680000000     0.725340000000     0          
T        Si     0.135736666667     0.304545000000     0.588675000000     0          
T        Si     0.185220000000     0.302700000000     0.701460000000     0          
T        Si     0.235736666667     0.038540000000     0.995050000000     0          
T        Si     0.239880000000     0.148885000000     0.675750000000     0          
T        Si     0.130116666667     0.439550000000     0.678175000000     0          
T        Si     0.257950000000     0.273945000000     0.585930000000     0          
T        Si     0.207986666667     0.345845000000     0.597240000000     0          
T        Si     0.248286666667     0.371265000000     0.705980000000     0          
T        Si     0.001820000000     0.423435000000     0.514750000000     0          
T        Si     0.329530000000     0.015555000000     0.559320000000     0          
T        Si     0.147026666667     0.358600000000     0.745795000000     0          
T        Si     0.222196666667     0.281320000000     0.975340000000     0          
T        Si     0.135736666667     0.445455000000     0.838675000000     0          
T        Si     0.185220000000     0.447300000000     0.951460000000     0          
T        Si     0.235736666667     0.211460000000     0.745050000000     0          
T        Si     0.239880000000     0.101115000000     0.925750000000     0          
T        Si     0.130116666667     0.310450000000     0.928175000000     0          
T        Si     0.257950000000     0.476055000000     0.835930000000     0          
T        Si     0.207986666667     0.404155000000     0.847240000000     0          
T        Si     0.248286666667     0.378735000000     0.955980000000     0          
T        Si     0.001820000000     0.326565000000     0.764750000000     0          
T        Si     0.329530000000     0.234445000000     0.809320000000     0          
T        Si     0.147026666667     0.391400000000     0.995795000000     0          
T        Si     0.111136666667     0.031320000000     0.774660000000     0          
T        Si     0.197596666667     0.195455000000     0.911325000000     0          
T        Si     0.148113333333     0.197300000000     0.798540000000     0          
T        Si     0.097596666667     0.461460000000     0.504950000000     0          
T        Si     0.093453333333     0.351115000000     0.824250000000     0          
T        Si     0.203216666667     0.060450000000     0.821825000000     0          
T        Si     0.075383333333     0.226055000000     0.914070000000     0          
T        Si     0.125346666667     0.154155000000     0.902760000000     0          
T        Si     0.085046666667     0.128735000000     0.794020000000     0          
T        Si     0.331513333333     0.076565000000     0.985250000000     0          
T        Si     0.003803333333     0.484445000000     0.940680000000     0          
T        Si     0.186306666667     0.141400000000     0.754205000000     0          
T        Si     0.111136666667     0.718680000000     0.024660000000     0          
T        Si     0.197596666667     0.554545000000     0.161325000000     0          
T        Si     0.148113333333     0.552700000000     0.048540000000     0          
T        Si     0.097596666667     0.788540000000     0.254950000000     0          
T        Si     0.093453333333     0.898885000000     0.074250000000     0          
T        Si     0.203216666667     0.689550000000     0.071825000000     0          
T        Si     0.075383333333     0.523945000000     0.164070000000     0          
T        Si     0.125346666667     0.595845000000     0.152760000000     0          
T        Si     0.085046666667     0.621265000000     0.044020000000     0          
T        Si     0.331513333333     0.673435000000     0.235250000000     0          
T        Si     0.003803333333     0.765555000000     0.190680000000     0          
T        Si     0.186306666667     0.608600000000     0.004205000000     0          
T        Si     0.222196666667     0.968680000000     0.225340000000     0          
T        Si     0.135736666667     0.804545000000     0.088675000000     0          
T        Si     0.185220000000     0.802700000000     0.201460000000     0          
T        Si     0.235736666667     0.538540000000     0.495050000000     0          
T        Si     0.239880000000     0.648885000000     0.175750000000     0          
T        Si     0.130116666667     0.939550000000     0.178175000000     0          
T        Si     0.257950000000     0.773945000000     0.085930000000     0          
T        Si     0.207986666667     0.845845000000     0.097240000000     0          
T        Si     0.248286666667     0.871265000000     0.205980000000     0          
T        Si     0.001820000000     0.923435000000     0.014750000000     0          
T        Si     0.329530000000     0.515555000000     0.059320000000     0          
T        Si     0.147026666667     0.858600000000     0.245795000000     0          
T        Si     0.222196666667     0.781320000000     0.475340000000     0          
T        Si     0.135736666667     0.945455000000     0.338675000000     0          
T        Si     0.185220000000     0.947300000000     0.451460000000     0          
T        Si     0.235736666667     0.711460000000     0.245050000000     0          
T        Si     0.239880000000     0.601115000000     0.425750000000     0          
T        Si     0.130116666667     0.810450000000     0.428175000000     0          
T        Si     0.257950000000     0.976055000000     0.335930000000     0          
T        Si     0.207986666667     0.904155000000     0.347240000000     0          
T        Si     0.248286666667     0.878735000000     0.455980000000     0          
T        Si     0.001820000000     0.826565000000     0.264750000000     0          
T        Si     0.329530000000     0.734445000000     0.309320000000     0          
T        Si     0.147026666667     0.891400000000     0.495795000000     0          
T        Si     0.111136666667     0.531320000000     0.274660000000     0          
T        Si     0.197596666667     0.695455000000     0.411325000000     0          
T        Si     0.148113333333     0.697300000000     0.298540000000     0          
T        Si     0.097596666667     0.961460000000     0.004950000000     0          
T        Si     0.093453333333     0.851115000000     0.324250000000     0          
T        Si     0.203216666667     0.560450000000     0.321825000000     0          
T        Si     0.075383333333     0.726055000000     0.414070000000     0          
T        Si     0.125346666667     0.654155000000     0.402760000000     0          
T        Si     0.085046666667     0.628735000000     0.294020000000     0          
T        Si     0.331513333333     0.576565000000     0.485250000000     0          
T        Si     0.003803333333     0.984445000000     0.440680000000     0          
T        Si     0.186306666667     0.641400000000     0.254205000000     0          
T        Si     0.111136666667     0.718680000000     0.524660000000     0          
T        Si     0.197596666667     0.554545000000     0.661325000000     0          
T        Si     0.148113333333     0.552700000000     0.548540000000     0          
T        Si     0.097596666667     0.788540000000     0.754950000000     0          
T        Si     0.093453333333     0.898885000000     0.574250000000     0          
T        Si     0.203216666667     0.689550000000     0.571825000000     0          
T        Si     0.075383333333     0.523945000000     0.664070000000     0          
T        Si     0.125346666667     0.595845000000     0.652760000000     0          
T        Si     0.085046666667     0.621265000000     0.544020000000     0          
T        Si     0.331513333333     0.673435000000     0.735250000000     0          
T        Si     0.003803333333     0.765555000000     0.690680000000     0          
T        Si     0.186306666667     0.608600000000     0.504205000000     0          
T        Si     0.222196666667     0.968680000000     0.725340000000     0          
T        Si     0.135736666667     0.804545000000     0.588675000000     0          
T        Si     0.185220000000     0.802700000000     0.701460000000     0          
T        Si     0.235736666667     0.538540000000     0.995050000000     0          
T        Si     0.239880000000     0.648885000000     0.675750000000     0          
T        Si     0.130116666667     0.939550000000     0.678175000000     0          
T        Si     0.257950000000     0.773945000000     0.585930000000     0          
T        Si     0.207986666667     0.845845000000     0.597240000000     0          
T        Si     0.248286666667     0.871265000000     0.705980000000     0          
T        Si     0.001820000000     0.923435000000     0.514750000000     0          
T        Si     0.329530000000     0.515555000000     0.559320000000     0          
T        Si     0.147026666667     0.858600000000     0.745795000000     0          
T        Si     0.222196666667     0.781320000000     0.975340000000     0          
T        Si     0.135736666667     0.945455000000     0.838675000000     0          
T        Si     0.185220000000     0.947300000000     0.951460000000     0          
T        Si     0.235736666667     0.711460000000     0.745050000000     0          
T        Si     0.239880000000     0.601115000000     0.925750000000     0          
T        Si     0.130116666667     0.810450000000     0.928175000000     0          
T        Si     0.257950000000     0.976055000000     0.835930000000     0          
T        Si     0.207986666667     0.904155000000     0.847240000000     0          
T        Si     0.248286666667     0.878735000000     0.955980000000     0          
T        Si     0.001820000000     0.826565000000     0.764750000000     0          
T        Si     0.329530000000     0.734445000000     0.809320000000     0          
T        Si     0.147026666667     0.891400000000     0.995795000000     0          
T        Si     0.111136666667     0.531320000000     0.774660000000     0          
T        Si     0.197596666667     0.695455000000     0.911325000000     0          
T        Si     0.148113333333     0.697300000000     0.798540000000     0          
T        Si     0.097596666667     0.961460000000     0.504950000000     0          
T        Si     0.093453333333     0.851115000000     0.824250000000     0          
T        Si     0.203216666667     0.560450000000     0.821825000000     0          
T        Si     0.075383333333     0.726055000000     0.914070000000     0          
T        Si     0.125346666667     0.654155000000     0.902760000000     0          
T        Si     0.085046666667     0.628735000000     0.794020000000     0          
T        Si     0.331513333333     0.576565000000     0.985250000000     0          
T        Si     0.003803333333     0.984445000000     0.940680000000     0          
T        Si     0.186306666667     0.641400000000     0.754205000000     0          
T        Si     0.444470000000     0.218680000000     0.024660000000     0          
T        Si     0.530930000000     0.054545000000     0.161325000000     0          
T        Si     0.481446666667     0.052700000000     0.048540000000     0          
T        Si     0.430930000000     0.288540000000     0.254950000000     0          
T        Si     0.426786666667     0.398885000000     0.074250000000     0          
T        Si     0.536550000000     0.189550000000     0.071825000000     0          
T        Si     0.408716666667     0.023945000000     0.164070000000     0          
T        Si     0.458680000000     0.095845000000     0.152760000000     0          
T        Si     0.418380000000     0.121265000000     0.044020000000     0          
T        Si     0.664846666667     0.173435000000     0.235250000000     0          
T        Si     0.337136666667     0.265555000000     0.190680000000     0          
T        Si     0.519640000000     0.108600000000     0.004205000000     0          
T        Si     0.555530000000     0.468680000000     0.225340000000     0          
T        Si     0.469070000000     0.304545000000     0.088675000000     0          
T        Si     0.518553333333     0.302700000000     0.201460000000     0          
T        Si     0.569070000000     0.038540000000     0.495050000000     0          
T        Si     0.573213333333     0.148885000000     0.175750000000     0          
T        Si     0.463450000000     0.439550000000     0.178175000000     0          
T        Si     0.591283333333     0.273945000000     0.085930000000     0          
T        Si     0.541320000000     0.345845000000     0.097240000000     0          
T        Si     0.581620000000     0.371265000000     0.205980000000     0          
T        Si     0.335153333333     0.423435000000     0.014750000000     0          
T        Si     0.662863333333     0.015555000000     0.059320000000     0          
T        Si     0.480360000000     0.358600000000     0.245795000000     0          
T        Si     0.555530000000     0.281320000000     0.475340000000     0          
T        Si     0.469070000000     0.445455000000     0.338675000000     0          
T        Si     0.518553333333     0.447300000000     0.451460000000     0          
T        Si     0.569070000000     0.211460000000     0.245050000000     0          
T        Si     0.573213333333     0.101115000000     0.425750000000     0          
T        Si     0.463450000000     0.310450000000     0.428175000000     0          
T        Si     0.591283333333     0.476055000000     0.335930000000     0          
T        Si     0.541320000000     0.404155000000     0.347240000000     0          
T        Si     0.581620000000     0.378735000000     0.455980000000     0          
T        Si     0.335153333333     0.326565000000     0.264750000000     0          
T        Si     0.662863333333     0.234445000000     0.309320000000     0          
T        Si     0.480360000000     0.391400000000     0.495795000000     0          
T        Si     0.444470000000     0.031320000000     0.274660000000     0          
T        Si     0.530930000000     0.195455000000     0.411325000000     0          
T        Si     0.481446666667     0.197300000000     0.298540000000     0          
T        Si     0.430930000000     0.461460000000     0.004950000000     0          
T        Si     0.426786666667     0.351115000000     0.324250000000     0          
T        Si     0.536550000000     0.060450000000     0.321825000000     0          
T        Si     0.408716666667     0.226055000000     0.414070000000     0          
T        Si     0.458680000000     0.154155000000     0.402760000000     0          
T        Si     0.418380000000     0.128735000000     0.294020000000     0          
T        Si     0.664846666667     0.076565000000     0.485250000000     0          
T        Si     0.337136666667     0.484445000000     0.440680000000     0          
T        Si     0.519640000000     0.141400000000     0.254205000000     0          
T        Si     0.444470000000     0.218680000000     0.524660000000     0          
T        Si     0.530930000000     0.054545000000     0.661325000000     0          
T        Si     0.481446666667     0.052700000000     0.548540000000     0          
T        Si     0.430930000000     0.288540000000     0.754950000000     0          
T        Si     0.426786666667     0.398885000000     0.574250000000     0          
T        Si     0.536550000000     0.189550000000     0.571825000000     0          
T        Si     0.408716666667     0.023945000000     0.664070000000     0          
T        Si     0.458680000000     0.095845000000     0.652760000000     0          
T        Si     0.418380000000     0.121265000000     0.544020000000     0          
T        Si     0.664846666667     0.173435000000     0.735250000000     0          
T        Si     0.337136666667     0.265555000000     0.690680000000     0          
T        Si     0.519640000000     0.108600000000     0.504205000000     0          
T        Si     0.555530000000     0.468680000000     0.725340000000     0          
T        Si     0.469070000000     0.304545000000     0.588675000000     0          
T        Si     0.518553333333     0.302700000000     0.701460000000     0          
T        Si     0.569070000000     0.038540000000     0.995050000000     0          
T        Si     0.573213333333     0.148885000000     0.675750000000     0          
T        Si     0.463450000000     0.439550000000     0.678175000000     0          
T        Si     0.591283333333     0.273945000000     0.585930000000     0          
T        Si     0.541320000000     0.345845000000     0.597240000000     0          
T        Si     0.581620000000     0.371265000000     0.705980000000     0          
T        Si     0.335153333333     0.423435000000     0.514750000000     0          
T        Si     0.662863333333     0.015555000000     0.559320000000     0          
T        Si     0.480360000000     0.358600000000     0.745795000000     0          
T        Si     0.555530000000     0.281320000000     0.975340000000     0          
T        Si     0.469070000000     0.445455000000     0.838675000000     0          
T        Si     0.518553333333     0.447300000000     0.951460000000     0          
T        Si     0.569070000000     0.211460000000     0.745050000000     0          
T        Si     0.573213333333     0.101115000000     0.925750000000     0          
T        Si     0.463450000000     0.310450000000     0.928175000000     0          
T        Si     0.591283333333     0.476055000000     0.835930000000     0          
T        Si     0.541320000000     0.404155000000     0.847240000000     0          
T        Si     0.581620000000     0.378735000000     0.955980000000     0          
T        Si     0.335153333333     0.326565000000     0.764750000000     0          
T        Si     0.662863333333     0.234445000000     0.809320000000     0          
T        Si     0.480360000000     0.391400000000     0.995795000000     0          
T        Si     0.444470000000     0.031320000000     0.774660000000     0          
T        Si     0.530930000000     0.195455000000     0.911325000000     0          
T        Si     0.481446666667     0.197300000000     0.798540000000     0          
T        Si     0.430930000000     0.461460000000     0.504950000000     0          
T        Si     0.426786666667     0.351115000000     0.824250000000     0          
T        Si     0.536550000000     0.060450000000     0.821825000000     0          
T        Si     0.408716666667     0.226055000000     0.914070000000     0          
T        Si     0.458680000000     0.154155000000     0.902760000000     0          
T        Si     0.418380000000     0.128735000000     0.794020000000     0          
T        Si     0.664846666667     0.076565000000     0.985250000000     0          
T        Si     0.337136666667     0.484445000000     0.940680000000     0          
T        Si     0.519640000000     0.141400000000     0.754205000000     0          
T        Si     0.444470000000     0.718680000000     0.024660000000     0          
T        Si     0.530930000000     0.554545000000     0.161325000000     0          
T        Si     0.481446666667     0.552700000000     0.048540000000     0          
T        Si     0.430930000000     0.788540000000     0.254950000000     0          
T        Si     0.426786666667     0.898885000000     0.074250000000     0          
T        Si     0.536550000000     0.689550000000     0.071825000000     0          
T        Si     0.408716666667     0.523945000000     0.164070000000     0          
T        Si     0.458680000000     0.595845000000     0.152760000000     0          
T        Si     0.418380000000     0.621265000000     0.044020000000     0          
T        Si     0.664846666667     0.673435000000     0.235250000000     0          
T        Si     0.337136666667     0.765555000000     0.190680000000     0          
T        Si     0.519640000000     0.608600000000     0.004205000000     0          
T        Si     0.555530000000     0.968680000000     0.225340000000     0          
T        Si     0.469070000000     0.804545000000     0.088675000000     0          
T        Si     0.518553333333     0.802700000000     0.201460000000     0          
T        Si     0.569070000000     0.538540000000     0.495050000000     0          
T        Si     0.573213333333     0.648885000000     0.175750000000     0          
T        Si     0.463450000000     0.939550000000     0.178175000000     0          
T        Si     0.591283333333     0.773945000000     0.085930000000     0          
T        Si     0.541320000000     0.845845000000     0.097240000000     0          
T        Si     0.581620000000     0.871265000000     0.205980000000     0          
T        Si     0.335153333333     0.923435000000     0.014750000000     0          
T        Si     0.662863333333     0.515555000000     0.059320000000     0          
T        Si     0.480360000000     0.858600000000     0.245795000000     0          
T        Si     0.555530000000     0.781320000000     0.475340000000     0          
T        Si     0.469070000000     0.945455000000     0.338675000000     0          
T        Si     0.518553333333     0.947300000000     0.451460000000     0          
T        Si     0.569070000000     0.711460000000     0.245050000000     0          
T        Si     0.573213333333     0.601115000000     0.425750000000     0          
T        Si     0.463450000000     0.810450000000     0.428175000000     0          
T        Si     0.591283333333     0.976055000000     0.335930000000     0          
T        Si     0.541320000000     0.904155000000     0.347240000000     0          
T        Si     0.581620000000     0.878735000000     0.455980000000     0          
T        Si     0.335153333333     0.826565000000     0.264750000000     0          
T        Si     0.662863333333     0.734445000000     0.309320000000     0          
T        Si     0.480360000000     0.891400000000     0.495795000000     0          
T        Si     0.444470000000     0.531320000000     0.274660000000     0          
T        Si     0.530930000000     0.695455000000     0.411325000000     0          
T        Si     0.481446666667     0.697300000000     0.298540000000     0          
T        Si     0.430930000000     0.961460000000     0.004950000000     0          
T        Si     0.426786666667     0.851115000000     0.324250000000     0          
T        Si     0.536550000000     0.560450000000     0.321825000000     0          
T        Si     0.408716666667     0.726055000000     0.414070000000     0          
T        Si     0.458680000000     0.654155000000     0.402760000000     0          
T        Si     0.418380000000     0.628735000000     0.294020000000     0          
T        Si     0.664846666667     0.576565000000     0.485250000000     0          
T        Si     0.337136666667     0.984445000000     0.440680000000     0          
T        Si     0.519640000000     0.641400000000     0.254205000000     0          
T        Si     0.444470000000     0.718680000000     0.524660000000     0          
T        Si     0.530930000000     0.554545000000     0.661325000000     0          
T        Si     0.481446666667     0.552700000000     0.548540000000     0          
T        Si     0.430930000000     0.788540000000     0.754950000000     0          
T        Si     0.426786666667     0.898885000000     0.574250000000     0          
T        Si     0.536550000000     0.689550000000     0.571825000000     0          
T        Si     0.408716666667     0.523945000000     0.664070000000     0          
T        Si     0.458680000000     0.595845000000     0.652760000000     0          
T        Si     0.418380000000     0.621265000000     0.544020000000     0          
T        Si     0.664846666667     0.673435000000     0.735250000000     0          
T        Si     0.337136666667     0.765555000000     0.690680000000     0          
T        Si     0.519640000000     0.608600000000     0.504205000000     0          
T        Si     0.555530000000     0.968680000000     0.725340000000     0          
T        Si     0.469070000000     0.804545000000     0.588675000000     0          
T        Si     0.518553333333     0.802700000000     0.701460000000     0          
T        Si     0.569070000000     0.538540000000     0.995050000000     0          
T        Si     0.573213333333     0.648885000000     0.675750000000     0          
T        Si     0.463450000000     0.939550000000     0.678175000000     0          
T        Si     0.591283333333     0.773945000000     0.585930000000     0          
T        Si     0.541320000000     0.845845000000     0.597240000000     0          
T        Si     0.581620000000     0.871265000000     0.705980000000     0          
T        Si     0.335153333333     0.923435000000     0.514750000000     0          
T        Si     0.662863333333     0.515555000000     0.559320000000     0          
T        Si     0.480360000000     0.858600000000     0.745795000000     0          
T        Si     0.555530000000     0.781320000000     0.975340000000     0          
T        Si     0.469070000000     0.945455000000     0.838675000000     0          
T        Si     0.518553333333     0.947300000000     0.951460000000     0          
T        Si     0.569070000000     0.711460000000     0.745050000000     0          
T        Si     0.573213333333     0.601115000000     0.925750000000     0          
T        Si     0.463450000000     0.810450000000     0.928175000000     0          
T        Si     0.591283333333     0.976055000000     0.835930000000     0          
T        Si     0.541320000000     0.904155000000     0.847240000000     0          
T        Si     0.581620000000     0.878735000000     0.955980000000     0          
T        Si     0.335153333333     0.826565000000     0.764750000000     0          
T        Si     0.662863333333     0.734445000000     0.809320000000     0          
T        Si     0.480360000000     0.891400000000     0.995795000000     0          
T        Si     0.444470000000     0.531320000000     0.774660000000     0          
T        Si     0.530930000000     0.695455000000     0.911325000000     0          
T        Si     0.481446666667     0.697300000000     0.798540000000     0          
T        Si     0.430930000000     0.961460000000     0.504950000000     0          
T        Si     0.426786666667     0.851115000000     0.824250000000     0          
T        Si     0.536550000000     0.560450000000     0.821825000000     0          
T        Si     0.408716666667     0.726055000000     0.914070000000     0          
T        Si     0.458680000000     0.654155000000     0.902760000000     0          
T        Si     0.418380000000     0.628735000000     0.794020000000     0          
T        Si     0.664846666667     0.576565000000     0.985250000000     0          
T        Si     0.337136666667     0.984445000000     0.940680000000     0          
T        Si     0.519640000000     0.641400000000     0.754205000000     0          
T        Si     0.777803333333     0.218680000000     0.024660000000     0          
T        Si     0.864263333333     0.054545000000     0.161325000000     0          
T        Si     0.814780000000     0.052700000000     0.048540000000     0          
T        Si     0.764263333333     0.288540000000     0.254950000000     0          
T        Si     0.760120000000     0.398885000000     0.074250000000     0          
T        Si     0.869883333333     0.189550000000     0.071825000000     0          
T        Si     0.742050000000     0.023945000000     0.164070000000     0          
T        Si     0.792013333333     0.095845000000     0.152760000000     0          
T        Si     0.751713333333     0.121265000000     0.044020000000     0          
T        Si     0.998180000000     0.173435000000     0.235250000000     0          
T        Si     0.670470000000     0.265555000000     0.190680000000     0          
T        Si     0.852973333333     0.108600000000     0.004205000000     0          
T        Si     0.888863333333     0.468680000000     0.225340000000     0          
T        Si     0.802403333333     0.304545000000     0.088675000000     0          
T        Si     0.851886666667     0.302700000000     0.201460000000     0          
T        Si     0.902403333333     0.038540000000     0.495050000000     0          
T        Si     0.906546666667     0.148885000000     0.175750000000     0          
T        Si     0.796783333333     0.439550000000     0.178175000000     0          
T        Si     0.924616666667     0.273945000000     0.085930000000     0          
T        Si     0.874653333333     0.345845000000     0.097240000000     0          
T        Si     0.914953333333     0.371265000000     0.205980000000     0          
T        Si     0.668486666667     0.423435000000     0.014750000000     0          
T        Si     0.996196666667     0.015555000000     0.059320000000     0          
T        Si     0.813693333333     0.358600000000     0.245795000000     0          
T        Si     0.888863333333     0.281320000000     0.475340000000     0          
T        Si     0.802403333333     0.445455000000     0.338675000000     0          
T        Si     0.851886666667     0.447300000000     0.451460000000     0          
T        Si     0.902403333333     0.211460000000     0.245050000000     0          
T        Si     0.906546666667     0.101115000000     0.425750000000     0          
T        Si     0.796783333333     0.310450000000     0.428175000000     0          
T        Si     0.924616666667     0.476055000000     0.335930000000     0          
T        Si     0.874653333333     0.404155000000     0.347240000000     0          
T        Si     0.914953333333     0.378735000000     0.455980000000     0          
T        Si     0.668486666667     0.326565000000     0.264750000000     0          
T        Si     0.996196666667     0.234445000000     0.309320000000     0          
T        Si     0.813693333333     0.391400000000     0.495795000000     0          
T        Si     0.777803333333     0.031320000000     0.274660000000     0          
T        Si     0.864263333333     0.195455000000     0.411325000000     0          
T        Si     0.814780000000     0.197300000000     0.298540000000     0          
T        Si     0.764263333333     0.461460000000     0.004950000000     0          
T        Si     0.760120000000     0.351115000000     0.324250000000     0          
T        Si     0.869883333333     0.060450000000     0.321825000000     0          
T        Si     0.742050000000     0.226055000000     0.414070000000     0          
T        Si     0.792013333333     0.154155000000     0.402760000000     0          
T        Si     0.751713333333     0.128735000000     0.294020000000     0          
T        Si     0.998180000000     0.076565000000     0.485250000000     0          
T        Si     0.670470000000     0.484445000000     0.440680000000     0          
T        Si     0.852973333333     0.141400000000     0.254205000000     0          
T        Si     0.777803333333     0.218680000000     0.524660000000     0          
T        Si     0.864263333333     0.054545000000     0.661325000000     0          
T        Si     0.814780000000     0.052700000000     0.548540000000     0          
T        Si     0.764263333333     0.288540000000     0.754950000000     0          
T        Si     0.760120000000     0.398885000000     0.574250000000     0          
T        Si     0.869883333333     0.189550000000     0.571825000000     0          
T        Si     0.742050000000     0.023945000000     0.664070000000     0          
T        Si     0.792013333333     0.095845000000     0.652760000000     0          
T        Si     0.751713333333     0.121265000000     0.544020000000     0          
T        Si     0.998180000000     0.173435000000     0.735250000000     0          
T        Si     0.670470000000     0.265555000000     0.690680000000     0          
T        Si     0.852973333333     0.108600000000     0.504205000000     0          
T        Si     0.888863333333     0.468680000000     0.725340000000     0          
T        Si     0.802403333333     0.304545000000     0.588675000000     0          
T        Si     0.851886666667     0.302700000000     0.701460000000     0          
T        Si     0.902403333333     0.038540000000     0.995050000000     0          
T        Si     0.906546666667     0.148885000000     0.675750000000     0          
T        Si     0.796783333333     0.439550000000     0.678175000000     0          
T        Si     0.924616666667     0.273945000000     0.585930000000     0          
T        Si     0.874653333333     0.345845000000     0.597240000000     0          
T        Si     0.914953333333     0.371265000000     0.705980000000     0          
T        Si     0.668486666667     0.423435000000     0.514750000000     0          
T        Si     0.996196666667     0.015555000000     0.559320000000     0          
T        Si     0.813693333333     0.358600000000     0.745795000000     0          
T        Si     0.888863333333     0.281320000000     0.975340000000     0          
T        Si     0.802403333333     0.445455000000     0.838675000000     0          
T        Si     0.851886666667     0.447300000000     0.951460000000     0          
T        Si     0.902403333333     0.211460000000     0.745050000000     0          
T        Si     0.906546666667     0.101115000000     0.925750000000     0          
T        Si     0.796783333333     0.310450000000     0.928175000000     0          
T        Si     0.924616666667     0.476055000000     0.835930000000     0          
T        Si     0.874653333333     0.404155000000     0.847240000000     0          
T        Si     0.914953333333     0.378735000000     0.955980000000     0          
T        Si     0.668486666667     0.326565000000     0.764750000000     0          
T        Si     0.996196666667     0.234445000000     0.809320000000     0          
T        Si     0.813693333333     0.391400000000     0.995795000000     0          
T        Si     0.777803333333     0.031320000000     0.774660000000     0          
T        Si     0.864263333333     0.195455000000     0.911325000000     0          
T        Si     0.814780000000     0.197300000000     0.798540000000     0          
T        Si     0.764263333333     0.461460000000     0.504950000000     0          
T        Si     0.760120000000     0.351115000000     0.824250000000     0          
T        Si     0.869883333333     0.060450000000     0.821825000000     0          
T        Si     0.742050000000     0.226055000000     0.914070000000     0          
T        Si     0.792013333333     0.154155000000     0.902760000000     0          
T        Si     0.751713333333     0.128735000000     0.794020000000     0          
T        Si     0.998180000000     0.076565000000     0.985250000000     0          
T        Si     0.670470000000     0.484445000000     0.940680000000     0          
T        Si     0.852973333333     0.141400000000     0.754205000000     0          
T        Si     0.777803333333     0.718680000000     0.024660000000     0          
T        Si     0.864263333333     0.554545000000     0.161325000000     0          
T        Si     0.814780000000     0.552700000000     0.048540000000     0          
T        Si     0.764263333333     0.788540000000     0.254950000000     0          
T        Si     0.760120000000     0.898885000000     0.074250000000     0          
T        Si     0.869883333333     0.689550000000     0.071825000000     0          
T        Si     0.742050000000     0.523945000000     0.164070000000     0          
T        Si     0.792013333333     0.595845000000     0.152760000000     0          
T        Si     0.751713333333     0.621265000000     0.044020000000     0          
T        Si     0.998180000000     0.673435000000     0.235250000000     0          
T        Si     0.670470000000     0.765555000000     0.190680000000     0          
T        Si     0.852973333333     0.608600000000     0.004205000000     0          
T        Si     0.888863333333     0.968680000000     0.225340000000     0          
T        Si     0.802403333333     0.804545000000     0.088675000000     0          
T        Si     0.851886666667     0.802700000000     0.201460000000     0          
T        Si     0.902403333333     0.538540000000     0.495050000000     0          
T        Si     0.906546666667     0.648885000000     0.175750000000     0          
T        Si     0.796783333333     0.939550000000     0.178175000000     0          
T        Si     0.924616666667     0.773945000000     0.085930000000     0          
T        Si     0.874653333333     0.845845000000     0.097240000000     0          
T        Si     0.914953333333     0.871265000000     0.205980000000     0          
T        Si     0.668486666667     0.923435000000     0.014750000000     0          
T        Si     0.996196666667     0.515555000000     0.059320000000     0          
T        Si     0.813693333333     0.858600000000     0.245795000000     0          
T        Si     0.888863333333     0.781320000000     0.475340000000     0          
T        Si     0.802403333333     0.945455000000     0.338675000000     0          
T        Si     0.851886666667     0.947300000000     0.451460000000     0          
T        Si     0.902403333333     0.711460000000     0.245050000000     0          
T        Si     0.906546666667     0.601115000000     0.425750000000     0          
T        Si     0.796783333333     0.810450000000     0.428175000000     0          
T        Si     0.924616666667     0.976055000000     0.335930000000     0          
T        Si     0.874653333333     0.904155000000     0.347240000000     0          
T        Si     0.914953333333     0.878735000000     0.455980000000     0          
T        Si     0.668486666667     0.826565000000     0.264750000000     0          
T        Si     0.996196666667     0.734445000000     0.309320000000     0          
T        Si     0.813693333333     0.891400000000     0.495795000000     0          
T        Si     0.777803333333     0.531320000000     0.274660000000     0          
T        Si     0.864263333333     0.695455000000     0.411325000000     0          
T        Si     0.814780000000     0.697300000000     0.298540000000     0          
T        Si     0.764263333333     0.961460000000     0.004950000000     0          
T        Si     0.760120000000     0.851115000000     0.324250000000     0          
T        Si     0.869883333333     0.560450000000     0.321825000000     0          
T        Si     0.742050000000     0.726055000000     0.414070000000     0          
T        Si     0.792013333333     0.654155000000     0.402760000000     0          
T        Si     0.751713333333     0.628735000000     0.294020000000     0          
T        Si     0.998180000000     0.576565000000     0.485250000000     0          
T        Si     0.670470000000     0.984445000000     0.440680000000     0          
T        Si     0.852973333333     0.641400000000     0.254205000000     0          
T        Si     0.777803333333     0.718680000000     0.524660000000     0          
T        Si     0.864263333333     0.554545000000     0.661325000000     0          
T        Si     0.814780000000     0.552700000000     0.548540000000     0          
T        Si     0.764263333333     0.788540000000     0.754950000000     0          
T        Si     0.760120000000     0.898885000000     0.574250000000     0          
T        Si     0.869883333333     0.689550000000     0.571825000000     0          
T        Si     0.742050000000     0.523945000000     0.664070000000     0          
T        Si     0.792013333333     0.595845000000     0.652760000000     0          
T        Si     0.751713333333     0.621265000000     0.544020000000     0          
T        Si     0.998180000000     0.673435000000     0.735250000000     0          
T        Si     0.670470000000     0.765555000000     0.690680000000     0          
T        Si     0.852973333333     0.608600000000     0.504205000000     0          
T        Si     0.888863333333     0.968680000000     0.725340000000     0          
T        Si     0.802403333333     0.804545000000     0.588675000000     0          
T        Si     0.851886666667     0.802700000000     0.701460000000     0          
T        Si     0.902403333333     0.538540000000     0.995050000000     0          
T        Si     0.906546666667     0.648885000000     0.675750000000     0          
T        Si     0.796783333333     0.939550000000     0.678175000000     0          
T        Si     0.924616666667     0.773945000000     0.585930000000     0          
T        Si     0.874653333333     0.845845000000     0.597240000000     0          
T        Si     0.914953333333     0.871265000000     0.705980000000     0          
T        Si     0.668486666667     0.923435000000     0.514750000000     0          
T        Si     0.996196666667     0.515555000000     0.559320000000     0          
T        Si     0.813693333333     0.858600000000     0.745795000000     0          
T        Si     0.888863333333     0.781320000000     0.975340000000     0          
T        Si     0.802403333333     0.945455000000     0.838675000000     0          
T        Si     0.851886666667     0.947300000000     0.951460000000     0          
T        Si     0.902403333333     0.711460000000     0.745050000000     0          
T        Si     0.906546666667     0.601115000000     0.925750000000     0          
T        Si     0.796783333333     0.810450000000     0.928175000000     0          
T        Si     0.924616666667     0.976055000000     0.835930000000     0          
T        Si     0.874653333333     0.904155000000     0.847240000000     0          
T        Si     0.914953333333     0.878735000000     0.955980000000     0          
T        Si     0.668486666667     0.826565000000     0.764750000000     0          
T        Si     0.996196666667     0.734445000000     0.809320000000     0          
T        Si     0.813693333333     0.891400000000     0.995795000000     0          
T        Si     0.777803333333     0.531320000000     0.774660000000     0          
T        Si     0.864263333333     0.695455000000     0.911325000000     0          
T        Si     0.814780000000     0.697300000000     0.798540000000     0          
T        Si     0.764263333333     0.961460000000     0.504950000000     0          
T        Si     0.760120000000     0.851115000000     0.824250000000     0          
T        Si     0.869883333333     0.560450000000     0.821825000000     0          
T        Si     0.742050000000     0.726055000000     0.914070000000     0          
T        Si     0.792013333333     0.654155000000     0.902760000000     0          
T        Si     0.751713333333     0.628735000000     0.794020000000     0          
T        Si     0.998180000000     0.576565000000     0.985250000000     0          
T        Si     0.670470000000     0.984445000000     0.940680000000     0          
T        Si     0.852973333333     0.641400000000     0.754205000000     0          
O        O      0.108130000000     0.261600000000     0.052580000000     0          
O        O      0.158693333333     0.213150000000     0.046500000000     0          
O        O      0.082656666667     0.020545000000     0.215880000000     0          
O        O      0.095506666667     0.171755000000     0.034010000000     0          
O        O      0.185366666667     0.046235000000     0.107180000000     0          
O        O      0.109843333333     0.352260000000     0.065400000000     0          
O        O      0.155713333333     0.058055000000     0.155625000000     0          
O        O      0.130990000000     0.002330000000     0.022850000000     0          
O        O      0.110946666667     0.081950000000     0.040385000000     0          
O        O      0.165096666667     0.079770000000     0.023340000000     0          
O        O      0.232163333333     0.192930000000     0.198165000000     0          
O        O      0.051496666667     0.269160000000     0.212560000000     0          
O        O      0.226020000000     0.080630000000     0.017515000000     0          
O        O      0.215360000000     0.156430000000     0.117025000000     0          
O        O      0.044463333333     0.394145000000     0.046240000000     0          
O        O      0.237806666667     0.229515000000     0.092400000000     0          
O        O      0.200816666667     0.158865000000     0.030760000000     0          
O        O      0.096243333333     0.070870000000     0.163000000000     0          
O        O      0.026290000000     0.025010000000     0.118475000000     0          
O        O      0.097156666667     0.119970000000     0.098630000000     0          
O        O      0.153133333333     0.134970000000     0.194730000000     0          
O        O      0.036173333333     0.110755000000     0.003005000000     0          
O        O      0.328273333333     0.214045000000     0.200605000000     0          
O        O      0.005616666667     0.053725000000     0.033110000000     0          
O        O      0.225203333333     0.011600000000     0.197420000000     0          
O        O      0.174640000000     0.463150000000     0.203500000000     0          
O        O      0.250676666667     0.270545000000     0.034120000000     0          
O        O      0.237826666667     0.421755000000     0.215990000000     0          
O        O      0.147966666667     0.296235000000     0.142820000000     0          
O        O      0.223490000000     0.102260000000     0.184600000000     0          
O        O      0.177620000000     0.308055000000     0.094375000000     0          
O        O      0.202343333333     0.252330000000     0.227150000000     0          
O        O      0.222386666667     0.331950000000     0.209615000000     0          
O        O      0.168236666667     0.329770000000     0.226660000000     0          
O        O      0.101170000000     0.442930000000     0.051835000000     0          
O        O      0.281836666667     0.019160000000     0.037440000000     0          
O        O      0.107313333333     0.330630000000     0.232485000000     0          
O        O      0.117973333333     0.406430000000     0.132975000000     0          
O        O      0.288870000000     0.144145000000     0.203760000000     0          
O        O      0.095526666667     0.479515000000     0.157600000000     0          
O        O      0.132516666667     0.408865000000     0.219240000000     0          
O        O      0.237090000000     0.320870000000     0.087000000000     0          
O        O      0.307043333333     0.275010000000     0.131525000000     0          
O        O      0.236176666667     0.369970000000     0.151370000000     0          
O        O      0.180200000000     0.384970000000     0.055270000000     0          
O        O      0.297160000000     0.360755000000     0.246995000000     0          
O        O      0.005060000000     0.464045000000     0.049395000000     0          
O        O      0.327716666667     0.303725000000     0.216890000000     0          
O        O      0.225203333333     0.238400000000     0.447420000000     0          
O        O      0.174640000000     0.286850000000     0.453500000000     0          
O        O      0.250676666667     0.479455000000     0.284120000000     0          
O        O      0.237826666667     0.328245000000     0.465990000000     0          
O        O      0.147966666667     0.453765000000     0.392820000000     0          
O        O      0.223490000000     0.147740000000     0.434600000000     0          
O        O      0.177620000000     0.441945000000     0.344375000000     0          
O        O      0.202343333333     0.497670000000     0.477150000000     0          
O        O      0.222386666667     0.418050000000     0.459615000000     0          
O        O      0.168236666667     0.420230000000     0.476660000000     0          
O        O      0.101170000000     0.307070000000     0.301835000000     0          
O        O      0.281836666667     0.230840000000     0.287440000000     0          
O        O      0.107313333333     0.419370000000     0.482485000000     0          
O        O      0.117973333333     0.343570000000     0.382975000000     0          
O        O      0.288870000000     0.105855000000     0.453760000000     0          
O        O      0.095526666667     0.270485000000     0.407600000000     0          
O        O      0.132516666667     0.341135000000     0.469240000000     0          
O        O      0.237090000000     0.429130000000     0.337000000000     0          
O        O      0.307043333333     0.474990000000     0.381525000000     0          
O        O      0.236176666667     0.380030000000     0.401370000000     0          
O        O      0.180200000000     0.365030000000     0.305270000000     0          
O        O      0.297160000000     0.389245000000     0.496995000000     0          
O        O      0.005060000000     0.285955000000     0.299395000000     0          
O        O      0.327716666667     0.446275000000     0.466890000000     0          
O        O      0.108130000000     0.488400000000     0.302580000000     0          
O        O      0.158693333333     0.036850000000     0.296500000000     0          
O        O      0.082656666667     0.229455000000     0.465880000000     0          
O        O      0.095506666667     0.078245000000     0.284010000000     0          
O        O      0.185366666667     0.203765000000     0.357180000000     0          
O        O      0.109843333333     0.397740000000     0.315400000000     0          
O        O      0.155713333333     0.191945000000     0.405625000000     0          
O        O      0.130990000000     0.247670000000     0.272850000000     0          
O        O      0.110946666667     0.168050000000     0.290385000000     0          
O        O      0.165096666667     0.170230000000     0.273340000000     0          
O        O      0.232163333333     0.057070000000     0.448165000000     0          
O        O      0.051496666667     0.480840000000     0.462560000000     0          
O        O      0.226020000000     0.169370000000     0.267515000000     0          
O        O      0.215360000000     0.093570000000     0.367025000000     0          
O        O      0.044463333333     0.355855000000     0.296240000000     0          
O        O      0.237806666667     0.020485000000     0.342400000000     0          
O        O      0.200816666667     0.091135000000     0.280760000000     0          
O        O      0.096243333333     0.179130000000     0.413000000000     0          
O        O      0.026290000000     0.224990000000     0.368475000000     0          
O        O      0.097156666667     0.130030000000     0.348630000000     0          
O        O      0.153133333333     0.115030000000     0.444730000000     0          
O        O      0.036173333333     0.139245000000     0.253005000000     0          
O        O      0.328273333333     0.035955000000     0.450605000000     0          
O        O      0.005616666667     0.196275000000     0.283110000000     0          
O        O      0.108130000000     0.261600000000     0.552580000000     0          
O        O      0.158693333333     0.213150000000     0.546500000000     0          
O        O      0.082656666667     0.020545000000     0.715880000000     0          
O        O      0.095506666667     0.171755000000     0.534010000000     0          
O        O      0.185366666667     0.046235000000     0.607180000000     0          
O        O      0.109843333333     0.352260000000     0.565400000000     0          
O        O      0.155713333333     0.058055000000     0.655625000000     0          
O        O      0.130990000000     0.002330000000     0.522850000000     0          
O        O      0.110946666667     0.081950000000     0.540385000000     0          
O        O      0.165096666667     0.079770000000     0.523340000000     0          
O        O      0.232163333333     0.192930000000     0.698165000000     0          
O        O      0.051496666667     0.269160000000     0.712560000000     0          
O        O      0.226020000000     0.080630000000     0.517515000000     0          
O        O      0.215360000000     0.156430000000     0.617025000000     0          
O        O      0.044463333333     0.394145000000     0.546240000000     0          
O        O      0.237806666667     0.229515000000     0.592400000000     0          
O        O      0.200816666667     0.158865000000     0.530760000000     0          
O        O      0.096243333333     0.070870000000     0.663000000000     0          
O        O      0.026290000000     0.025010000000     0.618475000000     0          
O        O      0.097156666667     0.119970000000     0.598630000000     0          
O        O      0.153133333333     0.134970000000     0.694730000000     0          
O        O      0.036173333333     0.110755000000     0.503005000000     0          
O        O      0.328273333333     0.214045000000     0.700605000000     0          
O        O      0.005616666667     0.053725000000     0.533110000000     0          
O        O      0.225203333333     0.011600000000     0.697420000000     0          
O        O      0.174640000000     0.463150000000     0.703500000000     0          
O        O      0.250676666667     0.270545000000     0.534120000000     0          
O        O      0.237826666667     0.421755000000     0.715990000000     0          
O        O      0.147966666667     0.296235000000     0.642820000000     0          
O        O      0.223490000000     0.102260000000     0.684600000000     0          
O        O      0.177620000000     0.308055000000     0.594375000000     0          
O        O      0.202343333333     0.252330000000     0.727150000000     0          
O        O      0.222386666667     0.331950000000     0.709615000000     0          
O        O      0.168236666667     0.329770000000     0.726660000000     0          
O        O      0.101170000000     0.442930000000     0.551835000000     0          
O        O      0.281836666667     0.019160000000     0.537440000000     0          
O        O      0.107313333333     0.330630000000     0.732485000000     0          
O        O      0.117973333333     0.406430000000     0.632975000000     0          
O        O      0.288870000000     0.144145000000     0.703760000000     0          
O        O      0.095526666667     0.479515000000     0.657600000000     0          
O        O      0.132516666667     0.408865000000     0.719240000000     0          
O        O      0.237090000000     0.320870000000     0.587000000000     0          
O        O      0.307043333333     0.275010000000     0.631525000000     0          
O        O      0.236176666667     0.369970000000     0.651370000000     0          
O        O      0.180200000000     0.384970000000     0.555270000000     0          
O        O      0.297160000000     0.360755000000     0.746995000000     0          
O        O      0.005060000000     0.464045000000     0.549395000000     0          
O        O      0.327716666667     0.303725000000     0.716890000000     0          
O        O      0.225203333333     0.238400000000     0.947420000000     0          
O        O      0.174640000000     0.286850000000     0.953500000000     0          
O        O      0.250676666667     0.479455000000     0.784120000000     0          
O        O      0.237826666667     0.328245000000     0.965990000000     0          
O        O      0.147966666667     0.453765000000     0.892820000000     0          
O        O      0.223490000000     0.147740000000     0.934600000000     0          
O        O      0.177620000000     0.441945000000     0.844375000000     0          
O        O      0.202343333333     0.497670000000     0.977150000000     0          
O        O      0.222386666667     0.418050000000     0.959615000000     0          
O        O      0.168236666667     0.420230000000     0.976660000000     0          
O        O      0.101170000000     0.307070000000     0.801835000000     0          
O        O      0.281836666667     0.230840000000     0.787440000000     0          
O        O      0.107313333333     0.419370000000     0.982485000000     0          
O        O      0.117973333333     0.343570000000     0.882975000000     0          
O        O      0.288870000000     0.105855000000     0.953760000000     0          
O        O      0.095526666667     0.270485000000     0.907600000000     0          
O        O      0.132516666667     0.341135000000     0.969240000000     0          
O        O      0.237090000000     0.429130000000     0.837000000000     0          
O        O      0.307043333333     0.474990000000     0.881525000000     0          
O        O      0.236176666667     0.380030000000     0.901370000000     0          
O        O      0.180200000000     0.365030000000     0.805270000000     0          
O        O      0.297160000000     0.389245000000     0.996995000000     0          
O        O      0.005060000000     0.285955000000     0.799395000000     0          
O        O      0.327716666667     0.446275000000     0.966890000000     0          
O        O      0.108130000000     0.488400000000     0.802580000000     0          
O        O      0.158693333333     0.036850000000     0.796500000000     0          
O        O      0.082656666667     0.229455000000     0.965880000000     0          
O        O      0.095506666667     0.078245000000     0.784010000000     0          
O        O      0.185366666667     0.203765000000     0.857180000000     0          
O        O      0.109843333333     0.397740000000     0.815400000000     0          
O        O      0.155713333333     0.191945000000     0.905625000000     0          
O        O      0.130990000000     0.247670000000     0.772850000000     0          
O        O      0.110946666667     0.168050000000     0.790385000000     0          
O        O      0.165096666667     0.170230000000     0.773340000000     0          
O        O      0.232163333333     0.057070000000     0.948165000000     0          
O        O      0.051496666667     0.480840000000     0.962560000000     0          
O        O      0.226020000000     0.169370000000     0.767515000000     0          
O        O      0.215360000000     0.093570000000     0.867025000000     0          
O        O      0.044463333333     0.355855000000     0.796240000000     0          
O        O      0.237806666667     0.020485000000     0.842400000000     0          
O        O      0.200816666667     0.091135000000     0.780760000000     0          
O        O      0.096243333333     0.179130000000     0.913000000000     0          
O        O      0.026290000000     0.224990000000     0.868475000000     0          
O        O      0.097156666667     0.130030000000     0.848630000000     0          
O        O      0.153133333333     0.115030000000     0.944730000000     0          
O        O      0.036173333333     0.139245000000     0.753005000000     0          
O        O      0.328273333333     0.035955000000     0.950605000000     0          
O        O      0.005616666667     0.196275000000     0.783110000000     0          
O        O      0.108130000000     0.761600000000     0.052580000000     0          
O        O      0.158693333333     0.713150000000     0.046500000000     0          
O        O      0.082656666667     0.520545000000     0.215880000000     0          
O        O      0.095506666667     0.671755000000     0.034010000000     0          
O        O      0.185366666667     0.546235000000     0.107180000000     0          
O        O      0.109843333333     0.852260000000     0.065400000000     0          
O        O      0.155713333333     0.558055000000     0.155625000000     0          
O        O      0.130990000000     0.502330000000     0.022850000000     0          
O        O      0.110946666667     0.581950000000     0.040385000000     0          
O        O      0.165096666667     0.579770000000     0.023340000000     0          
O        O      0.232163333333     0.692930000000     0.198165000000     0          
O        O      0.051496666667     0.769160000000     0.212560000000     0          
O        O      0.226020000000     0.580630000000     0.017515000000     0          
O        O      0.215360000000     0.656430000000     0.117025000000     0          
O        O      0.044463333333     0.894145000000     0.046240000000     0          
O        O      0.237806666667     0.729515000000     0.092400000000     0          
O        O      0.200816666667     0.658865000000     0.030760000000     0          
O        O      0.096243333333     0.570870000000     0.163000000000     0          
O        O      0.026290000000     0.525010000000     0.118475000000     0          
O        O      0.097156666667     0.619970000000     0.098630000000     0          
O        O      0.153133333333     0.634970000000     0.194730000000     0          
O        O      0.036173333333     0.610755000000     0.003005000000     0          
O        O      0.328273333333     0.714045000000     0.200605000000     0          
O        O      0.005616666667     0.553725000000     0.033110000000     0          
O        O      0.225203333333     0.511600000000     0.197420000000     0          
O        O      0.174640000000     0.963150000000     0.203500000000     0          
O        O      0.250676666667     0.770545000000     0.034120000000     0          
O        O      0.237826666667     0.921755000000     0.215990000000     0          
O        O      0.147966666667     0.796235000000     0.142820000000     0          
O        O      0.223490000000     0.602260000000     0.184600000000     0          
O        O      0.177620000000     0.808055000000     0.094375000000     0          
O        O      0.202343333333     0.752330000000     0.227150000000     0          
O        O      0.222386666667     0.831950000000     0.209615000000     0          
O        O      0.168236666667     0.829770000000     0.226660000000     0          
O        O      0.101170000000     0.942930000000     0.051835000000     0          
O        O      0.281836666667     0.519160000000     0.037440000000     0          
O        O      0.107313333333     0.830630000000     0.232485000000     0          
O        O      0.117973333333     0.906430000000     0.132975000000     0          
O        O      0.288870000000     0.644145000000     0.203760000000     0          
O        O      0.095526666667     0.979515000000     0.157600000000     0          
O        O      0.132516666667     0.908865000000     0.219240000000     0          
O        O      0.237090000000     0.820870000000     0.087000000000     0          
O        O      0.307043333333     0.775010000000     0.131525000000     0          
O        O      0.236176666667     0.869970000000     0.151370000000     0          
O        O      0.180200000000     0.884970000000     0.055270000000     0          
O        O      0.297160000000     0.860755000000     0.246995000000     0          
O        O      0.005060000000     0.964045000000     0.049395000000     0          
O        O      0.327716666667     0.803725000000     0.216890000000     0          
O        O      0.225203333333     0.738400000000     0.447420000000     0          
O        O      0.174640000000     0.786850000000     0.453500000000     0          
O        O      0.250676666667     0.979455000000     0.284120000000     0          
O        O      0.237826666667     0.828245000000     0.465990000000     0          
O        O      0.147966666667     0.953765000000     0.392820000000     0          
O        O      0.223490000000     0.647740000000     0.434600000000     0          
O        O      0.177620000000     0.941945000000     0.344375000000     0          
O        O      0.202343333333     0.997670000000     0.477150000000     0          
O        O      0.222386666667     0.918050000000     0.459615000000     0          
O        O      0.168236666667     0.920230000000     0.476660000000     0          
O        O      0.101170000000     0.807070000000     0.301835000000     0          
O        O      0.281836666667     0.730840000000     0.287440000000     0          
O        O      0.107313333333     0.919370000000     0.482485000000     0          
O        O      0.117973333333     0.843570000000     0.382975000000     0          
O        O      0.288870000000     0.605855000000     0.453760000000     0          
O        O      0.095526666667     0.770485000000     0.407600000000     0          
O        O      0.132516666667     0.841135000000     0.469240000000     0          
O        O      0.237090000000     0.929130000000     0.337000000000     0          
O        O      0.307043333333     0.974990000000     0.381525000000     0          
O        O      0.236176666667     0.880030000000     0.401370000000     0          
O        O      0.180200000000     0.865030000000     0.305270000000     0          
O        O      0.297160000000     0.889245000000     0.496995000000     0          
O        O      0.005060000000     0.785955000000     0.299395000000     0          
O        O      0.327716666667     0.946275000000     0.466890000000     0          
O        O      0.108130000000     0.988400000000     0.302580000000     0          
O        O      0.158693333333     0.536850000000     0.296500000000     0          
O        O      0.082656666667     0.729455000000     0.465880000000     0          
O        O      0.095506666667     0.578245000000     0.284010000000     0          
O        O      0.185366666667     0.703765000000     0.357180000000     0          
O        O      0.109843333333     0.897740000000     0.315400000000     0          
O        O      0.155713333333     0.691945000000     0.405625000000     0          
O        O      0.130990000000     0.747670000000     0.272850000000     0          
O        O      0.110946666667     0.668050000000     0.290385000000     0          
O        O      0.165096666667     0.670230000000     0.273340000000     0          
O        O      0.232163333333     0.557070000000     0.448165000000     0          
O        O      0.051496666667     0.980840000000     0.462560000000     0          
O        O      0.226020000000     0.669370000000     0.267515000000     0          
O        O      0.215360000000     0.593570000000     0.367025000000     0          
O        O      0.044463333333     0.855855000000     0.296240000000     0          
O        O      0.237806666667     0.520485000000     0.342400000000     0          
O        O      0.200816666667     0.591135000000     0.280760000000     0          
O        O      0.096243333333     0.679130000000     0.413000000000     0          
O        O      0.026290000000     0.724990000000     0.368475000000     0          
O        O      0.097156666667     0.630030000000     0.348630000000     0          
O        O      0.153133333333     0.615030000000     0.444730000000     0          
O        O      0.036173333333     0.639245000000     0.253005000000     0          
O        O      0.328273333333     0.535955000000     0.450605000000     0          
O        O      0.005616666667     0.696275000000     0.283110000000     0          
O        O      0.108130000000     0.761600000000     0.552580000000     0          
O        O      0.158693333333     0.713150000000     0.546500000000     0          
O        O      0.082656666667     0.520545000000     0.715880000000     0          
O        O      0.095506666667     0.671755000000     0.534010000000     0          
O        O      0.185366666667     0.546235000000     0.607180000000     0          
O        O      0.109843333333     0.852260000000     0.565400000000     0          
O        O      0.155713333333     0.558055000000     0.655625000000     0          
O        O      0.130990000000     0.502330000000     0.522850000000     0          
O        O      0.110946666667     0.581950000000     0.540385000000     0          
O        O      0.165096666667     0.579770000000     0.523340000000     0          
O        O      0.232163333333     0.692930000000     0.698165000000     0          
O        O      0.051496666667     0.769160000000     0.712560000000     0          
O        O      0.226020000000     0.580630000000     0.517515000000     0          
O        O      0.215360000000     0.656430000000     0.617025000000     0          
O        O      0.044463333333     0.894145000000     0.546240000000     0          
O        O      0.237806666667     0.729515000000     0.592400000000     0          
O        O      0.200816666667     0.658865000000     0.530760000000     0          
O        O      0.096243333333     0.570870000000     0.663000000000     0          
O        O      0.026290000000     0.525010000000     0.618475000000     0          
O        O      0.097156666667     0.619970000000     0.598630000000     0          
O        O      0.153133333333     0.634970000000     0.694730000000     0          
O        O      0.036173333333     0.610755000000     0.503005000000     0          
O        O      0.328273333333     0.714045000000     0.700605000000     0          
O        O      0.005616666667     0.553725000000     0.533110000000     0          
O        O      0.225203333333     0.511600000000     0.697420000000     0          
O        O      0.174640000000     0.963150000000     0.703500000000     0          
O        O      0.250676666667     0.770545000000     0.534120000000     0          
O        O      0.237826666667     0.921755000000     0.715990000000     0          
O        O      0.147966666667     0.796235000000     0.642820000000     0          
O        O      0.223490000000     0.602260000000     0.684600000000     0          
O        O      0.177620000000     0.808055000000     0.594375000000     0          
O        O      0.202343333333     0.752330000000     0.727150000000     0          
O        O      0.222386666667     0.831950000000     0.709615000000     0          
O        O      0.168236666667     0.829770000000     0.726660000000     0          
O        O      0.101170000000     0.942930000000     0.551835000000     0          
O        O      0.281836666667     0.519160000000     0.537440000000     0          
O        O      0.107313333333     0.830630000000     0.732485000000     0          
O        O      0.117973333333     0.906430000000     0.632975000000     0          
O        O      0.288870000000     0.644145000000     0.703760000000     0          
O        O      0.095526666667     0.979515000000     0.657600000000     0          
O        O      0.132516666667     0.908865000000     0.719240000000     0          
O        O      0.237090000000     0.820870000000     0.587000000000     0          
O        O      0.307043333333     0.775010000000     0.631525000000     0          
O        O      0.236176666667     0.869970000000     0.651370000000     0          
O        O      0.180200000000     0.884970000000     0.555270000000     0          
O        O      0.297160000000     0.860755000000     0.746995000000     0          
O        O      0.005060000000     0.964045000000     0.549395000000     0          
O        O      0.327716666667     0.803725000000     0.716890000000     0          
O        O      0.225203333333     0.738400000000     0.947420000000     0          
O        O      0.174640000000     0.786850000000     0.953500000000     0          
O        O      0.250676666667     0.979455000000     0.784120000000     0          
O        O      0.237826666667     0.828245000000     0.965990000000     0          
O        O      0.147966666667     0.953765000000     0.892820000000     0          
O        O      0.223490000000     0.647740000000     0.934600000000     0          
O        O      0.177620000000     0.941945000000     0.844375000000     0          
O        O      0.202343333333     0.997670000000     0.977150000000     0          
O        O      0.222386666667     0.918050000000     0.959615000000     0          
O        O      0.168236666667     0.920230000000     0.976660000000     0          
O        O      0.101170000000     0.807070000000     0.801835000000     0          
O        O      0.281836666667     0.730840000000     0.787440000000     0          
O        O      0.107313333333     0.919370000000     0.982485000000     0          
O        O      0.117973333333     0.843570000000     0.882975000000     0          
O        O      0.288870000000     0.605855000000     0.953760000000     0          
O        O      0.095526666667     0.770485000000     0.907600000000     0          
O        O      0.132516666667     0.841135000000     0.969240000000     0          
O        O      0.237090000000     0.929130000000     0.837000000000     0          
O        O      0.307043333333     0.974990000000     0.881525000000     0          
O        O      0.236176666667     0.880030000000     0.901370000000     0          
O        O      0.180200000000     0.865030000000     0.805270000000     0          
O        O      0.297160000000     0.889245000000     0.996995000000     0          
O        O      0.005060000000     0.785955000000     0.799395000000     0          
O        O      0.327716666667     0.946275000000     0.966890000000     0          
O        O      0.108130000000     0.988400000000     0.802580000000     0          
O        O      0.158693333333     0.536850000000     0.796500000000     0          
O        O      0.082656666667     0.729455000000     0.965880000000     0          
O        O      0.095506666667     0.578245000000     0.784010000000     0          
O        O      0.185366666667     0.703765000000     0.857180000000     0          
O        O      0.109843333333     0.897740000000     0.815400000000     0          
O        O      0.155713333333     0.691945000000     0.905625000000     0          
O        O      0.130990000000     0.747670000000     0.772850000000     0          
O        O      0.110946666667     0.668050000000     0.790385000000     0          
O        O      0.165096666667     0.670230000000     0.773340000000     0          
O        O      0.232163333333     0.557070000000     0.948165000000     0          
O        O      0.051496666667     0.980840000000     0.962560000000     0          
O        O      0.226020000000     0.669370000000     0.767515000000     0          
O        O      0.215360000000     0.593570000000     0.867025000000     0          
O        O      0.044463333333     0.855855000000     0.796240000000     0          
O        O      0.237806666667     0.520485000000     0.842400000000     0          
O        O      0.200816666667     0.591135000000     0.780760000000     0          
O        O      0.096243333333     0.679130000000     0.913000000000     0          
O        O      0.026290000000     0.724990000000     0.868475000000     0          
O        O      0.097156666667     0.630030000000     0.848630000000     0          
O        O      0.153133333333     0.615030000000     0.944730000000     0          
O        O      0.036173333333     0.639245000000     0.753005000000     0          
O        O      0.328273333333     0.535955000000     0.950605000000     0          
O        O      0.005616666667     0.696275000000     0.783110000000     0          
O        O      0.441463333333     0.261600000000     0.052580000000     0          
O        O      0.492026666667     0.213150000000     0.046500000000     0          
O        O      0.415990000000     0.020545000000     0.215880000000     0          
O        O      0.428840000000     0.171755000000     0.034010000000     0          
O        O      0.518700000000     0.046235000000     0.107180000000     0          
O        O      0.443176666667     0.352260000000     0.065400000000     0          
O        O      0.489046666667     0.058055000000     0.155625000000     0          
O        O      0.464323333333     0.002330000000     0.022850000000     0          
O        O      0.444280000000     0.081950000000     0.040385000000     0          
O        O      0.498430000000     0.079770000000     0.023340000000     0          
O        O      0.565496666667     0.192930000000     0.198165000000     0          
O        O      0.384830000000     0.269160000000     0.212560000000     0          
O        O      0.559353333333     0.080630000000     0.017515000000     0          
O        O      0.548693333333     0.156430000000     0.117025000000     0          
O        O      0.377796666667     0.394145000000     0.046240000000     0          
O        O      0.571140000000     0.229515000000     0.092400000000     0          
O        O      0.534150000000     0.158865000000     0.030760000000     0          
O        O      0.429576666667     0.070870000000     0.163000000000     0          
O        O      0.359623333333     0.025010000000     0.118475000000     0          
O        O      0.430490000000     0.119970000000     0.098630000000     0          
O        O      0.486466666667     0.134970000000     0.194730000000     0          
O        O      0.369506666667     0.110755000000     0.003005000000     0          
O        O      0.661606666667     0.214045000000     0.200605000000     0          
O        O      0.338950000000     0.053725000000     0.033110000000     0          
O        O      0.558536666667     0.011600000000     0.197420000000     0          
O        O      0.507973333333     0.463150000000     0.203500000000     0          
O        O      0.584010000000     0.270545000000     0.034120000000     0          
O        O      0.571160000000     0.421755000000     0.215990000000     0          
O        O      0.481300000000     0.296235000000     0.142820000000     0          
O        O      0.556823333333     0.102260000000     0.184600000000     0          
O        O      0.510953333333     0.308055000000     0.094375000000     0          
O        O      0.535676666667     0.252330000000     0.227150000000     0          
O        O      0.555720000000     0.331950000000     0.209615000000     0          
O        O      0.501570000000     0.329770000000     0.226660000000     0          
O        O      0.434503333333     0.442930000000     0.051835000000     0          
O        O      0.615170000000     0.019160000000     0.037440000000     0          
O        O      0.440646666667     0.330630000000     0.232485000000     0          
O        O      0.451306666667     0.406430000000     0.132975000000     0          
O        O      0.622203333333     0.144145000000     0.203760000000     0          
O        O      0.428860000000     0.479515000000     0.157600000000     0          
O        O      0.465850000000     0.408865000000     0.219240000000     0          
O        O      0.570423333333     0.320870000000     0.087000000000     0          
O        O      0.640376666667     0.275010000000     0.131525000000     0          
O        O      0.569510000000     0.369970000000     0.151370000000     0          
O        O      0.513533333333     0.384970000000     0.055270000000     0          
O        O      0.630493333333     0.360755000000     0.246995000000     0          
O        O      0.338393333333     0.464045000000     0.049395000000     0          
O        O      0.661050000000     0.303725000000     0.216890000000     0          
O        O      0.558536666667     0.238400000000     0.447420000000     0          
O        O      0.507973333333     0.286850000000     0.453500000000     0          
O        O      0.584010000000     0.479455000000     0.284120000000     0          
O        O      0.571160000000     0.328245000000     0.465990000000     0          
O        O      0.481300000000     0.453765000000     0.392820000000     0          
O        O      0.556823333333     0.147740000000     0.434600000000     0          
O        O      0.510953333333     0.441945000000     0.344375000000     0          
O        O      0.535676666667     0.497670000000     0.477150000000     0          
O        O      0.555720000000     0.418050000000     0.459615000000     0          
O        O      0.501570000000     0.420230000000     0.476660000000     0          
O        O      0.434503333333     0.307070000000     0.301835000000     0          
O        O      0.615170000000     0.230840000000     0.287440000000     0          
O        O      0.440646666667     0.419370000000     0.482485000000     0          
O        O      0.451306666667     0.343570000000     0.382975000000     0          
O        O      0.622203333333     0.105855000000     0.453760000000     0          
O        O      0.428860000000     0.270485000000     0.407600000000     0          
O        O      0.465850000000     0.341135000000     0.469240000000     0          
O        O      0.570423333333     0.429130000000     0.337000000000     0          
O        O      0.640376666667     0.474990000000     0.381525000000     0          
O        O      0.569510000000     0.380030000000     0.401370000000     0          
O        O      0.513533333333     0.365030000000     0.305270000000     0          
O        O      0.630493333333     0.389245000000     0.496995000000     0          
O        O      0.338393333333     0.285955000000     0.299395000000     0          
O        O      0.661050000000     0.446275000000     0.466890000000     0          
O        O      0.441463333333     0.488400000000     0.302580000000     0          
O        O      0.492026666667     0.036850000000     0.296500000000     0          
O        O      0.415990000000     0.229455000000     0.465880000000     0          
O        O      0.428840000000     0.078245000000     0.284010000000     0          
O        O      0.518700000000     0.203765000000     0.357180000000     0          
O        O      0.443176666667     0.397740000000     0.315400000000     0          
O        O      0.489046666667     0.191945000000     0.405625000000     0          
O        O      0.464323333333     0.247670000000     0.272850000000     0          
O        O      0.444280000000     0.168050000000     0.290385000000     0          
O        O      0.498430000000     0.170230000000     0.273340000000     0          
O        O      0.565496666667     0.057070000000     0.448165000000     0          
O        O      0.384830000000     0.480840000000     0.462560000000     0          
O        O      0.559353333333     0.169370000000     0.267515000000     0          
O        O      0.548693333333     0.093570000000     0.367025000000     0          
O        O      0.377796666667     0.355855000000     0.296240000000     0          
O        O      0.571140000000     0.020485000000     0.342400000000     0          
O        O      0.534150000000     0.091135000000     0.280760000000     0          
O        O      0.429576666667     0.179130000000     0.413000000000     0          
O        O      0.359623333333     0.224990000000     0.368475000000     0          
O        O      0.430490000000     0.130030000000     0.348630000000     0          
O        O      0.486466666667     0.115030000000     0.444730000000     0          
O        O      0.369506666667     0.139245000000     0.253005000000     0          
O        O      0.661606666667     0.035955000000     0.450605000000     0          
O        O      0.338950000000     0.196275000000     0.283110000000     0          
O        O      0.441463333333     0.261600000000     0.552580000000     0          
O        O      0.492026666667     0.213150000000     0.546500000000     0          
O        O      0.415990000000     0.020545000000     0.715880000000     0          
O        O      0.428840000000     0.171755000000     0.534010000000     0          
O        O      0.518700000000     0.046235000000     0.607180000000     0          
O        O      0.443176666667     0.352260000000     0.565400000000     0          
O        O      0.489046666667     0.058055000000     0.655625000000     0          
O        O      0.464323333333     0.002330000000     0.522850000000     0          
O        O      0.444280000000     0.081950000000     0.540385000000     0          
O        O      0.498430000000     0.079770000000     0.523340000000     0          
O        O      0.565496666667     0.192930000000     0.698165000000     0          
O        O      0.384830000000     0.269160000000     0.712560000000     0          
O        O      0.559353333333     0.080630000000     0.517515000000     0          
O        O      0.548693333333     0.156430000000     0.617025000000     0          
O        O      0.377796666667     0.394145000000     0.546240000000     0          
O        O      0.571140000000     0.229515000000     0.592400000000     0          
O        O      0.534150000000     0.158865000000     0.530760000000     0          
O        O      0.429576666667     0.070870000000     0.663000000000     0          
O        O      0.359623333333     0.025010000000     0.618475000000     0          
O        O      0.430490000000     0.119970000000     0.598630000000     0          
O        O      0.486466666667     0.134970000000     0.694730000000     0          
O        O      0.369506666667     0.110755000000     0.503005000000     0          
O        O      0.661606666667     0.214045000000     0.700605000000     0          
O        O      0.338950000000     0.053725000000     0.533110000000     0          
O        O      0.558536666667     0.011600000000     0.697420000000     0          
O        O      0.507973333333     0.463150000000     0.703500000000     0          
O        O      0.584010000000     0.270545000000     0.534120000000     0          
O        O      0.571160000000     0.421755000000     0.715990000000     0          
O        O      0.481300000000     0.296235000000     0.642820000000     0          
O        O      0.556823333333     0.102260000000     0.684600000000     0          
O        O      0.510953333333     0.308055000000     0.594375000000     0          
O        O      0.535676666667     0.252330000000     0.727150000000     0          
O        O      0.555720000000     0.331950000000     0.709615000000     0          
O        O      0.501570000000     0.329770000000     0.726660000000     0          
O        O      0.434503333333     0.442930000000     0.551835000000     0          
O        O      0.615170000000     0.019160000000     0.537440000000     0          
O        O      0.440646666667     0.330630000000     0.732485000000     0          
O        O      0.451306666667     0.406430000000     0.632975000000     0          
O        O      0.622203333333     0.144145000000     0.703760000000     0          
O        O      0.428860000000     0.479515000000     0.657600000000     0          
O        O      0.465850000000     0.408865000000     0.719240000000     0          
O        O      0.570423333333     0.320870000000     0.587000000000     0          
O        O      0.640376666667     0.275010000000     0.631525000000     0          
O        O      0.569510000000     0.369970000000     0.651370000000     0          
O        O      0.513533333333     0.384970000000     0.555270000000     0          
O        O      0.630493333333     0.360755000000     0.746995000000     0          
O        O      0.338393333333     0.464045000000     0.549395000000     0          
O        O      0.661050000000     0.303725000000     0.716890000000     0          
O        O      0.558536666667     0.238400000000     0.947420000000     0          
O        O      0.507973333333     0.286850000000     0.953500000000     0          
O        O      0.584010000000     0.479455000000     0.784120000000     0          
O        O      0.571160000000     0.328245000000     0.965990000000     0          
O        O      0.481300000000     0.453765000000     0.892820000000     0          
O        O      0.556823333333     0.147740000000     0.934600000000     0          
O        O      0.510953333333     0.441945000000     0.844375000000     0          
O        O      0.535676666667     0.497670000000     0.977150000000     0          
O        O      0.555720000000     0.418050000000     0.959615000000     0          
O        O      0.501570000000     0.420230000000     0.976660000000     0          
O        O      0.434503333333     0.307070000000     0.801835000000     0          
O        O      0.615170000000     0.230840000000     0.787440000000     0          
O        O      0.440646666667     0.419370000000     0.982485000000     0          
O        O      0.451306666667     0.343570000000     0.882975000000     0          
O        O      0.622203333333     0.105855000000     0.953760000000     0          
O        O      0.428860000000     0.270485000000     0.907600000000     0          
O        O      0.465850000000     0.341135000000     0.969240000000     0          
O        O      0.570423333333     0.429130000000     0.837000000000     0          
O        O      0.640376666667     0.474990000000     0.881525000000     0          
O        O      0.569510000000     0.380030000000     0.901370000000     0          
O        O      0.513533333333     0.365030000000     0.805270000000     0          
O        O      0.630493333333     0.389245000000     0.996995000000     0          
O        O      0.338393333333     0.285955000000     0.799395000000     0          
O        O      0.661050000000     0.446275000000     0.966890000000     0          
O        O      0.441463333333     0.488400000000     0.802580000000     0          
O        O      0.492026666667     0.036850000000     0.796500000000     0          
O        O      0.415990000000     0.229455000000     0.965880000000     0          
O        O      0.428840000000     0.078245000000     0.784010000000     0          
O        O      0.518700000000     0.203765000000     0.857180000000     0          
O        O      0.443176666667     0.397740000000     0.815400000000     0          
O        O      0.489046666667     0.191945000000     0.905625000000     0          
O        O      0.464323333333     0.247670000000     0.772850000000     0          
O        O      0.444280000000     0.168050000000     0.790385000000     0          
O        O      0.498430000000     0.170230000000     0.773340000000     0          
O        O      0.565496666667     0.057070000000     0.948165000000     0          
O        O      0.384830000000     0.480840000000     0.962560000000     0          
O        O      0.559353333333     0.169370000000     0.767515000000     0          
O        O      0.548693333333     0.093570000000     0.867025000000     0          
O        O      0.377796666667     0.355855000000     0.796240000000     0          
O        O      0.571140000000     0.020485000000     0.842400000000     0          
O        O      0.534150000000     0.091135000000     0.780760000000     0          
O        O      0.429576666667     0.179130000000     0.913000000000     0          
O        O      0.359623333333     0.224990000000     0.868475000000     0          
O        O      0.430490000000     0.130030000000     0.848630000000     0          
O        O      0.486466666667     0.115030000000     0.944730000000     0          
O        O      0.369506666667     0.139245000000     0.753005000000     0          
O        O      0.661606666667     0.035955000000     0.950605000000     0          
O        O      0.338950000000     0.196275000000     0.783110000000     0          
O        O      0.441463333333     0.761600000000     0.052580000000     0          
O        O      0.492026666667     0.713150000000     0.046500000000     0          
O        O      0.415990000000     0.520545000000     0.215880000000     0          
O        O      0.428840000000     0.671755000000     0.034010000000     0          
O        O      0.518700000000     0.546235000000     0.107180000000     0          
O        O      0.443176666667     0.852260000000     0.065400000000     0          
O        O      0.489046666667     0.558055000000     0.155625000000     0          
O        O      0.464323333333     0.502330000000     0.022850000000     0          
O        O      0.444280000000     0.581950000000     0.040385000000     0          
O        O      0.498430000000     0.579770000000     0.023340000000     0          
O        O      0.565496666667     0.692930000000     0.198165000000     0          
O        O      0.384830000000     0.769160000000     0.212560000000     0          
O        O      0.559353333333     0.580630000000     0.017515000000     0          
O        O      0.548693333333     0.656430000000     0.117025000000     0          
O        O      0.377796666667     0.894145000000     0.046240000000     0          
O        O      0.571140000000     0.729515000000     0.092400000000     0          
O        O      0.534150000000     0.658865000000     0.030760000000     0          
O        O      0.429576666667     0.570870000000     0.163000000000     0          
O        O      0.359623333333     0.525010000000     0.118475000000     0          
O        O      0.430490000000     0.619970000000     0.098630000000     0          
O        O      0.486466666667     0.634970000000     0.194730000000     0          
O        O      0.369506666667     0.610755000000     0.003005000000     0          
O        O      0.661606666667     0.714045000000     0.200605000000     0          
O        O      0.338950000000     0.553725000000     0.033110000000     0          
O        O      0.558536666667     0.511600000000     0.197420000000     0          
O        O      0.507973333333     0.963150000000     0.203500000000     0          
O        O      0.584010000000     0.770545000000     0.034120000000     0          
O        O      0.571160000000     0.921755000000     0.215990000000     0          
O        O      0.481300000000     0.796235000000     0.142820000000     0          
O        O      0.556823333333     0.602260000000     0.184600000000     0          
O        O      0.510953333333     0.808055000000     0.094375000000     0          
O        O      0.535676666667     0.752330000000     0.227150000000     0          
O        O      0.555720000000     0.831950000000     0.209615000000     0          
O        O      0.501570000000     0.829770000000     0.226660000000     0          
O        O      0.434503333333     0.942930000000     0.051835000000     0          
O        O      0.615170000000     0.519160000000     0.037440000000     0          
O        O      0.440646666667     0.830630000000     0.232485000000     0          
O        O      0.451306666667     0.906430000000     0.132975000000     0          
O        O      0.622203333333     0.644145000000     0.203760000000     0          
O        O      0.428860000000     0.979515000000     0.157600000000     0          
O        O      0.465850000000     0.908865000000     0.219240000000     0          
O        O      0.570423333333     0.820870000000     0.087000000000     0          
O        O      0.640376666667     0.775010000000     0.131525000000     0          
O        O      0.569510000000     0.869970000000     0.151370000000     0          
O        O      0.513533333333     0.884970000000     0.055270000000     0          
O        O      0.630493333333     0.860755000000     0.246995000000     0          
O        O      0.338393333333     0.964045000000     0.049395000000     0          
O        O      0.661050000000     0.803725000000     0.216890000000     0          
O        O      0.558536666667     0.738400000000     0.447420000000     0          
O        O      0.507973333333     0.786850000000     0.453500000000     0          
O        O      0.584010000000     0.979455000000     0.284120000000     0          
O        O      0.571160000000     0.828245000000     0.465990000000     0          
O        O      0.481300000000     0.953765000000     0.392820000000     0          
O        O      0.556823333333     0.647740000000     0.434600000000     0          
O        O      0.510953333333     0.941945000000     0.344375000000     0          
O        O      0.535676666667     0.997670000000     0.477150000000     0          
O        O      0.555720000000     0.918050000000     0.459615000000     0          
O        O      0.501570000000     0.920230000000     0.476660000000     0          
O        O      0.434503333333     0.807070000000     0.301835000000     0          
O        O      0.615170000000     0.730840000000     0.287440000000     0          
O        O      0.440646666667     0.919370000000     0.482485000000     0          
O        O      0.451306666667     0.843570000000     0.382975000000     0          
O        O      0.622203333333     0.605855000000     0.453760000000     0          
O        O      0.428860000000     0.770485000000     0.407600000000     0          
O        O      0.465850000000     0.841135000000     0.469240000000     0          
O        O      0.570423333333     0.929130000000     0.337000000000     0          
O        O      0.640376666667     0.974990000000     0.381525000000     0          
O        O      0.569510000000     0.880030000000     0.401370000000     0          
O        O      0.513533333333     0.865030000000     0.305270000000     0          
O        O      0.630493333333     0.889245000000     0.496995000000     0          
O        O      0.338393333333     0.785955000000     0.299395000000     0          
O        O      0.661050000000     0.946275000000     0.466890000000     0          
O        O      0.441463333333     0.988400000000     0.302580000000     0          
O        O      0.492026666667     0.536850000000     0.296500000000     0          
O        O      0.415990000000     0.729455000000     0.465880000000     0          
O        O      0.428840000000     0.578245000000     0.284010000000     0          
O        O      0.518700000000     0.703765000000     0.357180000000     0          
O        O      0.443176666667     0.897740000000     0.315400000000     0          
O        O      0.489046666667     0.691945000000     0.405625000000     0          
O        O      0.464323333333     0.747670000000     0.272850000000     0          
O        O      0.444280000000     0.668050000000     0.290385000000     0          
O        O      0.498430000000     0.670230000000     0.273340000000     0          
O        O      0.565496666667     0.557070000000     0.448165000000     0          
O        O      0.384830000000     0.980840000000     0.462560000000     0          
O        O      0.559353333333     0.669370000000     0.267515000000     0          
O        O      0.548693333333     0.593570000000     0.367025000000     0          
O        O      0.377796666667     0.855855000000     0.296240000000     0          
O        O      0.571140000000     0.520485000000     0.342400000000     0          
O        O      0.534150000000     0.591135000000     0.280760000000     0          
O        O      0.429576666667     0.679130000000     0.413000000000     0          
O        O      0.359623333333     0.724990000000     0.368475000000     0          
O        O      0.430490000000     0.630030000000     0.348630000000     0          
O        O      0.486466666667     0.615030000000     0.444730000000     0          
O        O      0.369506666667     0.639245000000     0.253005000000     0          
O        O      0.661606666667     0.535955000000     0.450605000000     0          
O        O      0.338950000000     0.696275000000     0.283110000000     0          
O        O      0.441463333333     0.761600000000     0.552580000000     0          
O        O      0.492026666667     0.713150000000     0.546500000000     0          
O        O      0.415990000000     0.520545000000     0.715880000000     0          
O        O      0.428840000000     0.671755000000     0.534010000000     0          
O        O      0.518700000000     0.546235000000     0.607180000000     0          
O        O      0.443176666667     0.852260000000     0.565400000000     0          
O        O      0.489046666667     0.558055000000     0.655625000000     0          
O        O      0.464323333333     0.502330000000     0.522850000000     0          
O        O      0.444280000000     0.581950000000     0.540385000000     0          
O        O      0.498430000000     0.579770000000     0.523340000000     0          
O        O      0.565496666667     0.692930000000     0.698165000000     0          
O        O      0.384830000000     0.769160000000     0.712560000000     0          
O        O      0.559353333333     0.580630000000     0.517515000000     0          
O        O      0.548693333333     0.656430000000     0.617025000000     0          
O        O      0.377796666667     0.894145000000     0.546240000000     0          
O        O      0.571140000000     0.729515000000     0.592400000000     0          
O        O      0.534150000000     0.658865000000     0.530760000000     0          
O        O      0.429576666667     0.570870000000     0.663000000000     0          
O        O      0.359623333333     0.525010000000     0.618475000000     0          
O        O      0.430490000000     0.619970000000     0.598630000000     0          
O        O      0.486466666667     0.634970000000     0.694730000000     0          
O        O      0.369506666667     0.610755000000     0.503005000000     0          
O        O      0.661606666667     0.714045000000     0.700605000000     0          
O        O      0.338950000000     0.553725000000     0.533110000000     0          
O        O      0.558536666667     0.511600000000     0.697420000000     0          
O        O      0.507973333333     0.963150000000     0.703500000000     0          
O        O      0.584010000000     0.770545000000     0.534120000000     0          
O        O      0.571160000000     0.921755000000     0.715990000000     0          
O        O      0.481300000000     0.796235000000     0.642820000000     0          
O        O      0.556823333333     0.602260000000     0.684600000000     0          
O        O      0.510953333333     0.808055000000     0.594375000000     0          
O        O      0.535676666667     0.752330000000     0.727150000000     0          
O        O      0.555720000000     0.831950000000     0.709615000000     0          
O        O      0.501570000000     0.829770000000     0.726660000000     0          
O        O      0.434503333333     0.942930000000     0.551835000000     0          
O        O      0.615170000000     0.519160000000     0.537440000000     0          
O        O      0.440646666667     0.830630000000     0.732485000000     0          
O        O      0.451306666667     0.906430000000     0.632975000000     0          
O        O      0.622203333333     0.644145000000     0.703760000000     0          
O        O      0.428860000000     0.979515000000     0.657600000000     0          
O        O      0.465850000000     0.908865000000     0.719240000000     0          
O        O      0.570423333333     0.820870000000     0.587000000000     0          
O        O      0.640376666667     0.775010000000     0.631525000000     0          
O        O      0.569510000000     0.869970000000     0.651370000000     0          
O        O      0.513533333333     0.884970000000     0.555270000000     0          
O        O      0.630493333333     0.860755000000     0.746995000000     0          
O        O      0.338393333333     0.964045000000     0.549395000000     0          
O        O      0.661050000000     0.803725000000     0.716890000000     0          
O        O      0.558536666667     0.738400000000     0.947420000000     0          
O        O      0.507973333333     0.786850000000     0.953500000000     0          
O        O      0.584010000000     0.979455000000     0.784120000000     0          
O        O      0.571160000000     0.828245000000     0.965990000000     0          
O        O      0.481300000000     0.953765000000     0.892820000000     0          
O        O      0.556823333333     0.647740000000     0.934600000000     0          
O        O      0.510953333333     0.941945000000     0.844375000000     0          
O        O      0.535676666667     0.997670000000     0.977150000000     0          
O        O      0.555720000000     0.918050000000     0.959615000000     0          
O        O      0.501570000000     0.920230000000     0.976660000000     0          
O        O      0.434503333333     0.807070000000     0.801835000000     0          
O        O      0.615170000000     0.730840000000     0.787440000000     0          
O        O      0.440646666667     0.919370000000     0.982485000000     0          
O        O      0.451306666667     0.843570000000     0.882975000000     0          
O        O      0.622203333333     0.605855000000     0.953760000000     0          
O        O      0.428860000000     0.770485000000     0.907600000000     0          
O        O      0.465850000000     0.841135000000     0.969240000000     0          
O        O      0.570423333333     0.929130000000     0.837000000000     0          
O        O      0.640376666667     0.974990000000     0.881525000000     0          
O        O      0.569510000000     0.880030000000     0.901370000000     0          
O        O      0.513533333333     0.865030000000     0.805270000000     0          
O        O      0.630493333333     0.889245000000     0.996995000000     0          
O        O      0.338393333333     0.785955000000     0.799395000000     0          
O        O      0.661050000000     0.946275000000     0.966890000000     0          
O        O      0.441463333333     0.988400000000     0.802580000000     0          
O        O      0.492026666667     0.536850000000     0.796500000000     0          
O        O      0.415990000000     0.729455000000     0.965880000000     0          
O        O      0.428840000000     0.578245000000     0.784010000000     0          
O        O      0.518700000000     0.703765000000     0.857180000000     0          
O        O      0.443176666667     0.897740000000     0.815400000000     0          
O        O      0.489046666667     0.691945000000     0.905625000000     0          
O        O      0.464323333333     0.747670000000     0.772850000000     0          
O        O      0.444280000000     0.668050000000     0.790385000000     0          
O        O      0.498430000000     0.670230000000     0.773340000000     0          
O        O      0.565496666667     0.557070000000     0.948165000000     0          
O        O      0.384830000000     0.980840000000     0.962560000000     0          
O        O      0.559353333333     0.669370000000     0.767515000000     0          
O        O      0.548693333333     0.593570000000     0.867025000000     0          
O        O      0.377796666667     0.855855000000     0.796240000000     0          
O        O      0.571140000000     0.520485000000     0.842400000000     0          
O        O      0.534150000000     0.591135000000     0.780760000000     0          
O        O      0.429576666667     0.679130000000     0.913000000000     0          
O        O      0.359623333333     0.724990000000     0.868475000000     0          
O        O      0.430490000000     0.630030000000     0.848630000000     0          
O        O      0.486466666667     0.615030000000     0.944730000000     0          
O        O      0.369506666667     0.639245000000     0.753005000000     0          
O        O      0.661606666667     0.535955000000     0.950605000000     0          
O        O      0.338950000000     0.696275000000     0.783110000000     0          
O        O      0.774796666667     0.261600000000     0.052580000000     0          
O        O      0.825360000000     0.213150000000     0.046500000000     0          
O        O      0.749323333333     0.020545000000     0.215880000000     0          
O        O      0.762173333333     0.171755000000     0.034010000000     0          
O        O      0.852033333333     0.046235000000     0.107180000000     0          
O        O      0.776510000000     0.352260000000     0.065400000000     0          
O        O      0.822380000000     0.058055000000     0.155625000000     0          
O        O      0.797656666667     0.002330000000     0.022850000000     0          
O        O      0.777613333333     0.081950000000     0.040385000000     0          
O        O      0.831763333333     0.079770000000     0.023340000000     0          
O        O      0.898830000000     0.192930000000     0.198165000000     0          
O        O      0.718163333333     0.269160000000     0.212560000000     0          
O        O      0.892686666667     0.080630000000     0.017515000000     0          
O        O      0.882026666667     0.156430000000     0.117025000000     0          
O        O      0.711130000000     0.394145000000     0.046240000000     0          
O        O      0.904473333333     0.229515000000     0.092400000000     0          
O        O      0.867483333333     0.158865000000     0.030760000000     0          
O        O      0.762910000000     0.070870000000     0.163000000000     0          
O        O      0.692956666667     0.025010000000     0.118475000000     0          
O        O      0.763823333333     0.119970000000     0.098630000000     0          
O        O      0.819800000000     0.134970000000     0.194730000000     0          
O        O      0.702840000000     0.110755000000     0.003005000000     0          
O        O      0.994940000000     0.214045000000     0.200605000000     0          
O        O      0.672283333333     0.053725000000     0.033110000000     0          
O        O      0.891870000000     0.011600000000     0.197420000000     0          
O        O      0.841306666667     0.463150000000     0.203500000000     0          
O        O      0.917343333333     0.270545000000     0.034120000000     0          
O        O      0.904493333333     0.421755000000     0.215990000000     0          
O        O      0.814633333333     0.296235000000     0.142820000000     0          
O        O      0.890156666667     0.102260000000     0.184600000000     0          
O        O      0.844286666667     0.308055000000     0.094375000000     0          
O        O      0.869010000000     0.252330000000     0.227150000000     0          
O        O      0.889053333333     0.331950000000     0.209615000000     0          
O        O      0.834903333333     0.329770000000     0.226660000000     0          
O        O      0.767836666667     0.442930000000     0.051835000000     0          
O        O      0.948503333333     0.019160000000     0.037440000000     0          
O        O      0.773980000000     0.330630000000     0.232485000000     0          
O        O      0.784640000000     0.406430000000     0.132975000000     0          
O        O      0.955536666667     0.144145000000     0.203760000000     0          
O        O      0.762193333333     0.479515000000     0.157600000000     0          
O        O      0.799183333333     0.408865000000     0.219240000000     0          
O        O      0.903756666667     0.320870000000     0.087000000000     0          
O        O      0.973710000000     0.275010000000     0.131525000000     0          
O        O      0.902843333333     0.369970000000     0.151370000000     0          
O        O      0.846866666667     0.384970000000     0.055270000000     0          
O        O      0.963826666667     0.360755000000     0.246995000000     0          
O        O      0.671726666667     0.464045000000     0.049395000000     0          
O        O      0.994383333333     0.303725000000     0.216890000000     0          
O        O      0.891870000000     0.238400000000     0.447420000000     0          
O        O      0.841306666667     0.286850000000     0.453500000000     0          
O        O      0.917343333333     0.479455000000     0.284120000000     0          
O        O      0.904493333333     0.328245000000     0.465990000000     0          
O        O      0.814633333333     0.453765000000     0.392820000000     0          
O        O      0.890156666667     0.147740000000     0.434600000000     0          
O        O      0.844286666667     0.441945000000     0.344375000000     0          
O        O      0.869010000000     0.497670000000     0.477150000000     0          
O        O      0.889053333333     0.418050000000     0.459615000000     0          
O        O      0.834903333333     0.420230000000     0.476660000000     0          
O        O      0.767836666667     0.307070000000     0.301835000000     0          
O        O      0.948503333333     0.230840000000     0.287440000000     0          
O        O      0.773980000000     0.419370000000     0.482485000000     0          
O        O      0.784640000000     0.343570000000     0.382975000000     0          
O        O      0.955536666667     0.105855000000     0.453760000000     0          
O        O      0.762193333333     0.270485000000     0.407600000000     0          
O        O      0.799183333333     0.341135000000     0.469240000000     0          
O        O      0.903756666667     0.429130000000     0.337000000000     0          
O        O      0.973710000000     0.474990000000     0.381525000000     0          
O        O      0.902843333333     0.380030000000     0.401370000000     0          
O        O      0.846866666667     0.365030000000     0.305270000000     0          
O        O      0.963826666667     0.389245000000     0.496995000000     0          
O        O      0.671726666667     0.285955000000     0.299395000000     0          
O        O      0.994383333333     0.446275000000     0.466890000000     0          
O        O      0.774796666667     0.488400000000     0.302580000000     0          
O        O      0.825360000000     0.036850000000     0.296500000000     0          
O        O      0.749323333333     0.229455000000     0.465880000000     0          
O        O      0.762173333333     0.078245000000     0.284010000000     0          
O        O      0.852033333333     0.203765000000     0.357180000000     0          
O        O      0.776510000000     0.397740000000     0.315400000000     0          
O        O      0.822380000000     0.191945000000     0.405625000000     0          
O        O      0.797656666667     0.247670000000     0.272850000000     0          
O        O      0.777613333333     0.168050000000     0.290385000000     0          
O        O      0.831763333333     0.170230000000     0.273340000000     0          
O        O      0.898830000000     0.057070000000     0.448165000000     0          
O        O      0.718163333333     0.480840000000     0.462560000000     0          
O        O      0.892686666667     0.169370000000     0.267515000000     0          
O        O      0.882026666667     0.093570000000     0.367025000000     0          
O        O      0.711130000000     0.355855000000     0.296240000000     0          
O        O      0.904473333333     0.020485000000     0.342400000000     0          
O        O      0.867483333333     0.091135000000     0.280760000000     0          
O        O      0.762910000000     0.179130000000     0.413000000000     0          
O        O      0.692956666667     0.224990000000     0.368475000000     0          
O        O      0.763823333333     0.130030000000     0.348630000000     0          
O        O      0.819800000000     0.115030000000     0.444730000000     0          
O        O      0.702840000000     0.139245000000     0.253005000000     0          
O        O      0.994940000000     0.035955000000     0.450605000000     0          
O        O      0.672283333333     0.196275000000     0.283110000000     0          
O        O      0.774796666667     0.261600000000     0.552580000000     0          
O        O      0.825360000000     0.213150000000     0.546500000000     0          
O        O      0.749323333333     0.020545000000     0.715880000000     0          
O        O      0.762173333333     0.171755000000     0.534010000000     0          
O        O      0.852033333333     0.046235000000     0.607180000000     0          
O        O      0.776510000000     0.352260000000     0.565400000000     0          
O        O      0.822380000000     0.058055000000     0.655625000000     0          
O        O      0.797656666667     0.002330000000     0.522850000000     0          
O        O      0.777613333333     0.081950000000     0.540385000000     0          
O        O      0.831763333333     0.079770000000     0.523340000000     0          
O        O      0.898830000000     0.192930000000     0.698165000000     0          
O        O      0.718163333333     0.269160000000     0.712560000000     0          
O        O      0.892686666667     0.080630000000     0.517515000000     0          
O        O      0.882026666667     0.156430000000     0.617025000000     0          
O        O      0.711130000000     0.394145000000     0.546240000000     0          
O        O      0.904473333333     0.229515000000     0.592400000000     0          
O        O      0.867483333333     0.158865000000     0.530760000000     0          
O        O      0.762910000000     0.070870000000     0.663000000000     0          
O        O      0.692956666667     0.025010000000     0.618475000000     0          
O        O      0.763823333333     0.119970000000     0.598630000000     0          
O        O      0.819800000000     0.134970000000     0.694730000000     0          
O        O      0.702840000000     0.110755000000     0.503005000000     0          
O        O      0.994940000000     0.214045000000     0.700605000000     0          
O        O      0.672283333333     0.053725000000     0.533110000000     0          
O        O      0.891870000000     0.011600000000     0.697420000000     0          
O        O      0.841306666667     0.463150000000     0.703500000000     0          
O        O      0.917343333333     0.270545000000     0.534120000000     0          
O        O      0.904493333333     0.421755000000     0.715990000000     0          
O        O      0.814633333333     0.296235000000     0.642820000000     0          
O        O      0.890156666667     0.102260000000     0.684600000000     0          
O        O      0.844286666667     0.308055000000     0.594375000000     0          
O        O      0.869010000000     0.252330000000     0.727150000000     0          
O        O      0.889053333333     0.331950000000     0.709615000000     0          
O        O      0.834903333333     0.329770000000     0.726660000000     0          
O        O      0.767836666667     0.442930000000     0.551835000000     0          
O        O      0.948503333333     0.019160000000     0.537440000000     0          
O        O      0.773980000000     0.330630000000     0.732485000000     0          
O        O      0.784640000000     0.406430000000     0.632975000000     0          
O        O      0.955536666667     0.144145000000     0.703760000000     0          
O        O      0.762193333333     0.479515000000     0.657600000000     0          
O        O      0.799183333333     0.408865000000     0.719240000000     0          
O        O      0.903756666667     0.320870000000     0.587000000000     0          
O        O      0.973710000000     0.275010000000     0.631525000000     0          
O        O      0.902843333333     0.369970000000     0.651370000000     0          
O        O      0.846866666667     0.384970000000     0.555270000000     0          
O        O      0.963826666667     0.360755000000     0.746995000000     0          
O        O      0.671726666667     0.464045000000     0.549395000000     0          
O        O      0.994383333333     0.303725000000     0.716890000000     0          
O        O      0.891870000000     0.238400000000     0.947420000000     0          
O        O      0.841306666667     0.286850000000     0.953500000000     0          
O        O      0.917343333333     0.479455000000     0.784120000000     0          
O        O      0.904493333333     0.328245000000     0.965990000000     0          
O        O      0.814633333333     0.453765000000     0.892820000000     0          
O        O      0.890156666667     0.147740000000     0.934600000000     0          
O        O      0.844286666667     0.441945000000     0.844375000000     0          
O        O      0.869010000000     0.497670000000     0.977150000000     0          
O        O      0.889053333333     0.418050000000     0.959615000000     0          
O        O      0.834903333333     0.420230000000     0.976660000000     0          
O        O      0.767836666667     0.307070000000     0.801835000000     0          
O        O      0.948503333333     0.230840000000     0.787440000000     0          
O        O      0.773980000000     0.419370000000     0.982485000000     0          
O        O      0.784640000000     0.343570000000     0.882975000000     0          
O        O      0.955536666667     0.105855000000     0.953760000000     0          
O        O      0.762193333333     0.270485000000     0.907600000000     0          
O        O      0.799183333333     0.341135000000     0.969240000000     0          
O        O      0.903756666667     0.429130000000     0.837000000000     0          
O        O      0.973710000000     0.474990000000     0.881525000000     0          
O        O      0.902843333333     0.380030000000     0.901370000000     0          
O        O      0.846866666667     0.365030000000     0.805270000000     0          
O        O      0.963826666667     0.389245000000     0.996995000000     0          
O        O      0.671726666667     0.285955000000     0.799395000000     0          
O        O      0.994383333333     0.446275000000     0.966890000000     0          
O        O      0.774796666667     0.488400000000     0.802580000000     0          
O        O      0.825360000000     0.036850000000     0.796500000000     0          
O        O      0.749323333333     0.229455000000     0.965880000000     0          
O        O      0.762173333333     0.078245000000     0.784010000000     0          
O        O      0.852033333333     0.203765000000     0.857180000000     0          
O        O      0.776510000000     0.397740000000     0.815400000000     0          
O        O      0.822380000000     0.191945000000     0.905625000000     0          
O        O      0.797656666667     0.247670000000     0.772850000000     0          
O        O      0.777613333333     0.168050000000     0.790385000000     0          
O        O      0.831763333333     0.170230000000     0.773340000000     0          
O        O      0.898830000000     0.057070000000     0.948165000000     0          
O        O      0.718163333333     0.480840000000     0.962560000000     0          
O        O      0.892686666667     0.169370000000     0.767515000000     0          
O        O      0.882026666667     0.093570000000     0.867025000000     0          
O        O      0.711130000000     0.355855000000     0.796240000000     0          
O        O      0.904473333333     0.020485000000     0.842400000000     0          
O        O      0.867483333333     0.091135000000     0.780760000000     0          
O        O      0.762910000000     0.179130000000     0.913000000000     0          
O        O      0.692956666667     0.224990000000     0.868475000000     0          
O        O      0.763823333333     0.130030000000     0.848630000000     0          
O        O      0.819800000000     0.115030000000     0.944730000000     0          
O        O      0.702840000000     0.139245000000     0.753005000000     0          
O        O      0.994940000000     0.035955000000     0.950605000000     0          
O        O      0.672283333333     0.196275000000     0.783110000000     0          
O        O      0.774796666667     0.761600000000     0.052580000000     0          
O        O      0.825360000000     0.713150000000     0.046500000000     0          
O        O      0.749323333333     0.520545000000     0.215880000000     0          
O        O      0.762173333333     0.671755000000     0.034010000000     0          
O        O      0.852033333333     0.546235000000     0.107180000000     0          
O        O      0.776510000000     0.852260000000     0.065400000000     0          
O        O      0.822380000000     0.558055000000     0.155625000000     0          
O        O      0.797656666667     0.502330000000     0.022850000000     0          
O        O      0.777613333333     0.581950000000     0.040385000000     0          
O        O      0.831763333333     0.579770000000     0.023340000000     0          
O        O      0.898830000000     0.692930000000     0.198165000000     0          
O        O      0.718163333333     0.769160000000     0.212560000000     0          
O        O      0.892686666667     0.580630000000     0.017515000000     0          
O        O      0.882026666667     0.656430000000     0.117025000000     0          
O        O      0.711130000000     0.894145000000     0.046240000000     0          
O        O      0.904473333333     0.729515000000     0.092400000000     0          
O        O      0.867483333333     0.658865000000     0.030760000000     0          
O        O      0.762910000000     0.570870000000     0.163000000000     0          
O        O      0.692956666667     0.525010000000     0.118475000000     0          
O        O      0.763823333333     0.619970000000     0.098630000000     0          
O        O      0.819800000000     0.634970000000     0.194730000000     0          
O        O      0.702840000000     0.610755000000     0.003005000000     0          
O        O      0.994940000000     0.714045000000     0.200605000000     0          
O        O      0.672283333333     0.553725000000     0.033110000000     0          
O        O      0.891870000000     0.511600000000     0.197420000000     0          
O        O      0.841306666667     0.963150000000     0.203500000000     0          
O        O      0.917343333333     0.770545000000     0.034120000000     0          
O        O      0.904493333333     0.921755000000     0.215990000000     0          
O        O      0.814633333333     0.796235000000     0.142820000000     0          
O        O      0.890156666667     0.602260000000     0.184600000000     0          
O        O      0.844286666667     0.808055000000     0.094375000000     0          
O        O      0.869010000000     0.752330000000     0.227150000000     0          
O        O      0.889053333333     0.831950000000     0.209615000000     0          
O        O      0.834903333333     0.829770000000     0.226660000000     0          
O        O      0.767836666667     0.942930000000     0.051835000000     0          
O        O      0.948503333333     0.519160000000     0.037440000000     0          
O        O      0.773980000000     0.830630000000     0.232485000000     0          
O        O      0.784640000000     0.906430000000     0.132975000000     0          
O        O      0.955536666667     0.644145000000     0.203760000000     0          
O        O      0.762193333333     0.979515000000     0.157600000000     0          
O        O      0.799183333333     0.908865000000     0.219240000000     0          
O        O      0.903756666667     0.820870000000     0.087000000000     0          
O        O      0.973710000000     0.775010000000     0.131525000000     0          
O        O      0.902843333333     0.869970000000     0.151370000000     0          
O        O      0.846866666667     0.884970000000     0.055270000000     0          
O        O      0.963826666667     0.860755000000     0.246995000000     0          
O        O      0.671726666667     0.964045000000     0.049395000000     0          
O        O      0.994383333333     0.803725000000     0.216890000000     0          
O        O      0.891870000000     0.738400000000     0.447420000000     0          
O        O      0.841306666667     0.786850000000     0.453500000000     0          
O        O      0.917343333333     0.979455000000     0.284120000000     0          
O        O      0.904493333333     0.828245000000     0.465990000000     0          
O        O      0.814633333333     0.953765000000     0.392820000000     0          
O        O      0.890156666667     0.647740000000     0.434600000000     0          
O        O      0.844286666667     0.941945000000     0.344375000000     0          
O        O      0.869010000000     0.997670000000     0.477150000000     0          
O        O      0.889053333333     0.918050000000     0.459615000000     0          
O        O      0.834903333333     0.920230000000     0.476660000000     0          
O        O      0.767836666667     0.807070000000     0.301835000000     0          
O        O      0.948503333333     0.730840000000     0.287440000000     0          
O        O      0.773980000000     0.919370000000     0.482485000000     0          
O        O      0.784640000000     0.843570000000     0.382975000000     0          
O        O      0.955536666667     0.605855000000     0.453760000000     0          
O        O      0.762193333333     0.770485000000     0.407600000000     0          
O        O      0.799183333333     0.841135000000     0.469240000000     0          
O        O      0.903756666667     0.929130000000     0.337000000000     0          
O        O      0.973710000000     0.974990000000     0.381525000000     0          
O        O      0.902843333333     0.880030000000     0.401370000000     0          
O        O      0.846866666667     0.865030000000     0.305270000000     0          
O        O      0.963826666667     0.889245000000     0.496995000000     0          
O        O      0.671726666667     0.785955000000     0.299395000000     0          
O        O      0.994383333333     0.946275000000     0.466890000000     0          
O        O      0.774796666667     0.988400000000     0.302580000000     0          
O        O      0.825360000000     0.536850000000     0.296500000000     0          
O        O      0.749323333333     0.729455000000     0.465880000000     0          
O        O      0.762173333333     0.578245000000     0.284010000000     0          
O        O      0.852033333333     0.703765000000     0.357180000000     0          
O        O      0.776510000000     0.897740000000     0.315400000000     0          
O        O      0.822380000000     0.691945000000     0.405625000000     0          
O        O      0.797656666667     0.747670000000     0.272850000000     0          
O        O      0.777613333333     0.668050000000     0.290385000000     0          
O        O      0.831763333333     0.670230000000     0.273340000000     0          
O        O      0.898830000000     0.557070000000     0.448165000000     0          
O        O      0.718163333333     0.980840000000     0.462560000000     0          
O        O      0.892686666667     0.669370000000     0.267515000000     0          
O        O      0.882026666667     0.593570000000     0.367025000000     0          
O        O      0.711130000000     0.855855000000     0.296240000000     0          
O        O      0.904473333333     0.520485000000     0.342400000000     0          
O        O      0.867483333333     0.591135000000     0.280760000000     0          
O        O      0.762910000000     0.679130000000     0.413000000000     0          
O        O      0.692956666667     0.724990000000     0.368475000000     0          
O        O      0.763823333333     0.630030000000     0.348630000000     0          
O        O      0.819800000000     0.615030000000     0.444730000000     0          
O        O      0.702840000000     0.639245000000     0.253005000000     0          
O        O      0.994940000000     0.535955000000     0.450605000000     0          
O        O      0.672283333333     0.696275000000     0.283110000000     0          
O        O      0.774796666667     0.761600000000     0.552580000000     0          
O        O      0.825360000000     0.713150000000     0.546500000000     0          
O        O      0.749323333333     0.520545000000     0.715880000000     0          
O        O      0.762173333333     0.671755000000     0.534010000000     0          
O        O      0.852033333333     0.546235000000     0.607180000000     0          
O        O      0.776510000000     0.852260000000     0.565400000000     0          
O        O      0.822380000000     0.558055000000     0.655625000000     0          
O        O      0.797656666667     0.502330000000     0.522850000000     0          
O        O      0.777613333333     0.581950000000     0.540385000000     0          
O        O      0.831763333333     0.579770000000     0.523340000000     0          
O        O      0.898830000000     0.692930000000     0.698165000000     0          
O        O      0.718163333333     0.769160000000     0.712560000000     0          
O        O      0.892686666667     0.580630000000     0.517515000000     0          
O        O      0.882026666667     0.656430000000     0.617025000000     0          
O        O      0.711130000000     0.894145000000     0.546240000000     0          
O        O      0.904473333333     0.729515000000     0.592400000000     0          
O        O      0.867483333333     0.658865000000     0.530760000000     0          
O        O      0.762910000000     0.570870000000     0.663000000000     0          
O        O      0.692956666667     0.525010000000     0.618475000000     0          
O        O      0.763823333333     0.619970000000     0.598630000000     0          
O        O      0.819800000000     0.634970000000     0.694730000000     0          
O        O      0.702840000000     0.610755000000     0.503005000000     0          
O        O      0.994940000000     0.714045000000     0.700605000000     0          
O        O      0.672283333333     0.553725000000     0.533110000000     0          
O        O      0.891870000000     0.511600000000     0.697420000000     0          
O        O      0.841306666667     0.963150000000     0.703500000000     0          
O        O      0.917343333333     0.770545000000     0.534120000000     0          
O        O      0.904493333333     0.921755000000     0.715990000000     0          
O        O      0.814633333333     0.796235000000     0.642820000000     0          
O        O      0.890156666667     0.602260000000     0.684600000000     0          
O        O      0.844286666667     0.808055000000     0.594375000000     0          
O        O      0.869010000000     0.752330000000     0.727150000000     0          
O        O      0.889053333333     0.831950000000     0.709615000000     0          
O        O      0.834903333333     0.829770000000     0.726660000000     0          
O        O      0.767836666667     0.942930000000     0.551835000000     0          
O        O      0.948503333333     0.519160000000     0.537440000000     0          
O        O      0.773980000000     0.830630000000     0.732485000000     0          
O        O      0.784640000000     0.906430000000     0.632975000000     0          
O        O      0.955536666667     0.644145000000     0.703760000000     0          
O        O      0.762193333333     0.979515000000     0.657600000000     0          
O        O      0.799183333333     0.908865000000     0.719240000000     0          
O        O      0.903756666667     0.820870000000     0.587000000000     0          
O        O      0.973710000000     0.775010000000     0.631525000000     0          
O        O      0.902843333333     0.869970000000     0.651370000000     0          
O        O      0.846866666667     0.884970000000     0.555270000000     0          
O        O      0.963826666667     0.860755000000     0.746995000000     0          
O        O      0.671726666667     0.964045000000     0.549395000000     0          
O        O      0.994383333333     0.803725000000     0.716890000000     0          
O        O      0.891870000000     0.738400000000     0.947420000000     0          
O        O      0.841306666667     0.786850000000     0.953500000000     0          
O        O      0.917343333333     0.979455000000     0.784120000000     0          
O        O      0.904493333333     0.828245000000     0.965990000000     0          
O        O      0.814633333333     0.953765000000     0.892820000000     0          
O        O      0.890156666667     0.647740000000     0.934600000000     0          
O        O      0.844286666667     0.941945000000     0.844375000000     0          
O        O      0.869010000000     0.997670000000     0.977150000000     0          
O        O      0.889053333333     0.918050000000     0.959615000000     0          
O        O      0.834903333333     0.920230000000     0.976660000000     0          
O        O      0.767836666667     0.807070000000     0.801835000000     0          
O        O      0.948503333333     0.730840000000     0.787440000000     0          
O        O      0.773980000000     0.919370000000     0.982485000000     0          
O        O      0.784640000000     0.843570000000     0.882975000000     0          
O        O      0.955536666667     0.605855000000     0.953760000000     0          
O        O      0.762193333333     0.770485000000     0.907600000000     0          
O        O      0.799183333333     0.841135000000     0.969240000000     0          
O        O      0.903756666667     0.929130000000     0.837000000000     0          
O        O      0.973710000000     0.974990000000     0.881525000000     0          
O        O      0.902843333333     0.880030000000     0.901370000000     0          
O        O      0.846866666667     0.865030000000     0.805270000000     0          
O        O      0.963826666667     0.889245000000     0.996995000000     0          
O        O      0.671726666667     0.785955000000     0.799395000000     0          
O        O      0.994383333333     0.946275000000     0.966890000000     0          
O        O      0.774796666667     0.988400000000     0.802580000000     0          
O        O      0.825360000000     0.536850000000     0.796500000000     0          
O        O      0.749323333333     0.729455000000     0.965880000000     0          
O        O      0.762173333333     0.578245000000     0.784010000000     0          
O        O      0.852033333333     0.703765000000     0.857180000000     0          
O        O      0.776510000000     0.897740000000     0.815400000000     0          
O        O      0.822380000000     0.691945000000     0.905625000000     0          
O        O      0.797656666667     0.747670000000     0.772850000000     0          
O        O      0.777613333333     0.668050000000     0.790385000000     0          
O        O      0.831763333333     0.670230000000     0.773340000000     0          
O        O      0.898830000000     0.557070000000     0.948165000000     0          
O        O      0.718163333333     0.980840000000     0.962560000000     0          
O        O      0.892686666667     0.669370000000     0.767515000000     0          
O        O      0.882026666667     0.593570000000     0.867025000000     0          
O        O      0.711130000000     0.855855000000     0.796240000000     0          
O        O      0.904473333333     0.520485000000     0.842400000000     0          
O        O      0.867483333333     0.591135000000     0.780760000000     0          
O        O      0.762910000000     0.679130000000     0.913000000000     0          
O        O      0.692956666667     0.724990000000     0.868475000000     0          
O        O      0.763823333333     0.630030000000     0.848630000000     0          
O        O      0.819800000000     0.615030000000     0.944730000000     0          
O        O      0.702840000000     0.639245000000     0.753005000000     0          
O        O      0.994940000000     0.535955000000     0.950605000000     0          
O        O      0.672283333333     0.696275000000     0.783110000000     0          


