data_zeolite

_audit_creation_method RASPA-1.0
_audit_creation_date 2021-6-6
_audit_author_name ''

_cell_length_a    36.492
_cell_length_b    36.492
_cell_length_c    41.114
_cell_angle_alpha 90
_cell_angle_beta  90
_cell_angle_gamma 90
_cell_volume      54750.1

_symmetry_cell_setting          tetragonal
_symmetry_space_group_name_Hall 'P 1'
_symmetry_space_group_name_H-M  'P 1'
_symmetry_Int_Tables_number     1

_symmetry_equiv_pos_as_xyz 'x,y,z'

loop_
_atom_site_label
_atom_site_type_symbol
_atom_site_fract_x
_atom_site_fract_y
_atom_site_fract_z
_atom_site_charge
O        O      0.064350000000     0.361450000000     0.097050000000     0          
O        O      0.027650000000     0.375750000000     0.043650000000     0          
O        O      0.090000000000     0.340250000000     0.040550000000     0          
O        O      0.089600000000     0.410400000000     0.055650000000     0          
O        O      0.026900000000     0.375350000000     0.150250000000     0          
O        O      0.092200000000     0.345650000000     0.154400000000     0          
O        O      0.085800000000     0.414200000000     0.136150000000     0          
O        O      0.041550000000     0.130600000000     0.061500000000     0          
O        O      0.024650000000     0.119200000000     0.000000000000     0          
O        O      0.015900000000     0.066850000000     0.043100000000     0          
O        O      0.086400000000     0.086400000000     0.092950000000     0          
O        O      0.039450000000     0.127650000000     0.125200000000     0          
O        O      0.016650000000     0.067500000000     0.154250000000     0          
O        O      0.030450000000     0.126950000000     0.188550000000     0          
O        O      0.000000000000     0.000000000000     0.060500000000     0          
O        O      0.040650000000     0.040650000000     0.098900000000     0          
O        O      0.000000000000     0.000000000000     0.137700000000     0          
O        O      0.088250000000     0.088250000000     0.204350000000     0          
O        O      0.050300000000     0.121400000000     0.250000000000     0          
T        Si     0.067950000000     0.372200000000     0.059200000000     0          
T        Si     0.067200000000     0.374250000000     0.134450000000     0          
T        Si     0.013550000000     0.110400000000     0.037100000000     0          
T        Si     0.065800000000     0.125400000000     0.093850000000     0          
T        Si     0.014950000000     0.111600000000     0.154500000000     0          
T        Si     0.064750000000     0.124250000000     0.213050000000     0          
T        Si     0.031100000000     0.031100000000     0.061600000000     0          
T        Si     0.031100000000     0.031100000000     0.136200000000     0          
O        O      0.388550000000     0.314350000000     0.347050000000     0          
O        O      0.374250000000     0.277650000000     0.293650000000     0          
O        O      0.409750000000     0.340000000000     0.290550000000     0          
O        O      0.339600000000     0.339600000000     0.305650000000     0          
O        O      0.374650000000     0.276900000000     0.400250000000     0          
O        O      0.404350000000     0.342200000000     0.404400000000     0          
O        O      0.335800000000     0.335800000000     0.386150000000     0          
O        O      0.119400000000     0.291550000000     0.311500000000     0          
O        O      0.130800000000     0.274650000000     0.250000000000     0          
O        O      0.183150000000     0.265900000000     0.293100000000     0          
O        O      0.163600000000     0.336400000000     0.342950000000     0          
O        O      0.122350000000     0.289450000000     0.375200000000     0          
O        O      0.182500000000     0.266650000000     0.404250000000     0          
O        O      0.123050000000     0.280450000000     0.438550000000     0          
O        O      0.250000000000     0.250000000000     0.310500000000     0          
O        O      0.209350000000     0.290650000000     0.348900000000     0          
O        O      0.250000000000     0.250000000000     0.387700000000     0          
O        O      0.161750000000     0.338250000000     0.454350000000     0          
O        O      0.128600000000     0.300300000000     0.000000000000     0          
T        Si     0.377800000000     0.317950000000     0.309200000000     0          
T        Si     0.375750000000     0.317200000000     0.384450000000     0          
T        Si     0.139600000000     0.263550000000     0.287100000000     0          
T        Si     0.124600000000     0.315800000000     0.343850000000     0          
T        Si     0.138400000000     0.264950000000     0.404500000000     0          
T        Si     0.125750000000     0.314750000000     0.463050000000     0          
T        Si     0.218900000000     0.281100000000     0.311600000000     0          
T        Si     0.218900000000     0.281100000000     0.386200000000     0          
O        O      0.435650000000     0.138550000000     0.097050000000     0          
O        O      0.472350000000     0.124250000000     0.043650000000     0          
O        O      0.410000000000     0.159750000000     0.040550000000     0          
O        O      0.410400000000     0.089600000000     0.055650000000     0          
O        O      0.473100000000     0.124650000000     0.150250000000     0          
O        O      0.407800000000     0.154350000000     0.154400000000     0          
O        O      0.414200000000     0.085800000000     0.136150000000     0          
O        O      0.458450000000     0.369400000000     0.061500000000     0          
O        O      0.475350000000     0.380800000000     0.000000000000     0          
O        O      0.484100000000     0.433150000000     0.043100000000     0          
O        O      0.413600000000     0.413600000000     0.092950000000     0          
O        O      0.460550000000     0.372350000000     0.125200000000     0          
O        O      0.483350000000     0.432500000000     0.154250000000     0          
O        O      0.469550000000     0.373050000000     0.188550000000     0          
O        O      0.459350000000     0.459350000000     0.098900000000     0          
O        O      0.411750000000     0.411750000000     0.204350000000     0          
O        O      0.449700000000     0.378600000000     0.250000000000     0          
T        Si     0.432050000000     0.127800000000     0.059200000000     0          
T        Si     0.432800000000     0.125750000000     0.134450000000     0          
T        Si     0.486450000000     0.389600000000     0.037100000000     0          
T        Si     0.434200000000     0.374600000000     0.093850000000     0          
T        Si     0.485050000000     0.388400000000     0.154500000000     0          
T        Si     0.435250000000     0.375750000000     0.213050000000     0          
T        Si     0.468900000000     0.468900000000     0.061600000000     0          
T        Si     0.468900000000     0.468900000000     0.136200000000     0          
O        O      0.111450000000     0.185650000000     0.347050000000     0          
O        O      0.125750000000     0.222350000000     0.293650000000     0          
O        O      0.090250000000     0.160000000000     0.290550000000     0          
O        O      0.160400000000     0.160400000000     0.305650000000     0          
O        O      0.125350000000     0.223100000000     0.400250000000     0          
O        O      0.095650000000     0.157800000000     0.404400000000     0          
O        O      0.164200000000     0.164200000000     0.386150000000     0          
O        O      0.380600000000     0.208450000000     0.311500000000     0          
O        O      0.369200000000     0.225350000000     0.250000000000     0          
O        O      0.316850000000     0.234100000000     0.293100000000     0          
O        O      0.336400000000     0.163600000000     0.342950000000     0          
O        O      0.377650000000     0.210550000000     0.375200000000     0          
O        O      0.317500000000     0.233350000000     0.404250000000     0          
O        O      0.376950000000     0.219550000000     0.438550000000     0          
O        O      0.290650000000     0.209350000000     0.348900000000     0          
O        O      0.338250000000     0.161750000000     0.454350000000     0          
O        O      0.371400000000     0.199700000000     0.000000000000     0          
T        Si     0.122200000000     0.182050000000     0.309200000000     0          
T        Si     0.124250000000     0.182800000000     0.384450000000     0          
T        Si     0.360400000000     0.236450000000     0.287100000000     0          
T        Si     0.375400000000     0.184200000000     0.343850000000     0          
T        Si     0.361600000000     0.235050000000     0.404500000000     0          
T        Si     0.374250000000     0.185250000000     0.463050000000     0          
T        Si     0.281100000000     0.218900000000     0.311600000000     0          
T        Si     0.281100000000     0.218900000000     0.386200000000     0          
O        O      0.314350000000     0.388550000000     0.152950000000     0          
O        O      0.277650000000     0.374250000000     0.206350000000     0          
O        O      0.340000000000     0.409750000000     0.209450000000     0          
O        O      0.339600000000     0.339600000000     0.194350000000     0          
O        O      0.276900000000     0.374650000000     0.099750000000     0          
O        O      0.342200000000     0.404350000000     0.095600000000     0          
O        O      0.335800000000     0.335800000000     0.113850000000     0          
O        O      0.291550000000     0.119400000000     0.188500000000     0          
O        O      0.274650000000     0.130800000000     0.250000000000     0          
O        O      0.265900000000     0.183150000000     0.206900000000     0          
O        O      0.336400000000     0.163600000000     0.157050000000     0          
O        O      0.289450000000     0.122350000000     0.124800000000     0          
O        O      0.266650000000     0.182500000000     0.095750000000     0          
O        O      0.280450000000     0.123050000000     0.061450000000     0          
O        O      0.250000000000     0.250000000000     0.189500000000     0          
O        O      0.290650000000     0.209350000000     0.151100000000     0          
O        O      0.250000000000     0.250000000000     0.112300000000     0          
O        O      0.338250000000     0.161750000000     0.045650000000     0          
O        O      0.300300000000     0.128600000000     0.000000000000     0          
T        Si     0.317950000000     0.377800000000     0.190800000000     0          
T        Si     0.317200000000     0.375750000000     0.115550000000     0          
T        Si     0.263550000000     0.139600000000     0.212900000000     0          
T        Si     0.315800000000     0.124600000000     0.156150000000     0          
T        Si     0.264950000000     0.138400000000     0.095500000000     0          
T        Si     0.314750000000     0.125750000000     0.036950000000     0          
T        Si     0.281100000000     0.218900000000     0.188400000000     0          
T        Si     0.281100000000     0.218900000000     0.113800000000     0          
O        O      0.361450000000     0.064350000000     0.402950000000     0          
O        O      0.375750000000     0.027650000000     0.456350000000     0          
O        O      0.340250000000     0.090000000000     0.459450000000     0          
O        O      0.410400000000     0.089600000000     0.444350000000     0          
O        O      0.375350000000     0.026900000000     0.349750000000     0          
O        O      0.345650000000     0.092200000000     0.345600000000     0          
O        O      0.414200000000     0.085800000000     0.363850000000     0          
O        O      0.130600000000     0.041550000000     0.438500000000     0          
O        O      0.119200000000     0.024650000000     0.000000000000     0          
O        O      0.066850000000     0.015900000000     0.456900000000     0          
O        O      0.086400000000     0.086400000000     0.407050000000     0          
O        O      0.127650000000     0.039450000000     0.374800000000     0          
O        O      0.067500000000     0.016650000000     0.345750000000     0          
O        O      0.126950000000     0.030450000000     0.311450000000     0          
O        O      0.000000000000     0.000000000000     0.439500000000     0          
O        O      0.040650000000     0.040650000000     0.401100000000     0          
O        O      0.000000000000     0.000000000000     0.362300000000     0          
O        O      0.088250000000     0.088250000000     0.295650000000     0          
O        O      0.121400000000     0.050300000000     0.250000000000     0          
T        Si     0.372200000000     0.067950000000     0.440800000000     0          
T        Si     0.374250000000     0.067200000000     0.365550000000     0          
T        Si     0.110400000000     0.013550000000     0.462900000000     0          
T        Si     0.125400000000     0.065800000000     0.406150000000     0          
T        Si     0.111600000000     0.014950000000     0.345500000000     0          
T        Si     0.124250000000     0.064750000000     0.286950000000     0          
T        Si     0.031100000000     0.031100000000     0.438400000000     0          
T        Si     0.031100000000     0.031100000000     0.363800000000     0          
O        O      0.185650000000     0.111450000000     0.152950000000     0          
O        O      0.222350000000     0.125750000000     0.206350000000     0          
O        O      0.160000000000     0.090250000000     0.209450000000     0          
O        O      0.160400000000     0.160400000000     0.194350000000     0          
O        O      0.223100000000     0.125350000000     0.099750000000     0          
O        O      0.157800000000     0.095650000000     0.095600000000     0          
O        O      0.164200000000     0.164200000000     0.113850000000     0          
O        O      0.208450000000     0.380600000000     0.188500000000     0          
O        O      0.225350000000     0.369200000000     0.250000000000     0          
O        O      0.234100000000     0.316850000000     0.206900000000     0          
O        O      0.163600000000     0.336400000000     0.157050000000     0          
O        O      0.210550000000     0.377650000000     0.124800000000     0          
O        O      0.233350000000     0.317500000000     0.095750000000     0          
O        O      0.219550000000     0.376950000000     0.061450000000     0          
O        O      0.209350000000     0.290650000000     0.151100000000     0          
O        O      0.161750000000     0.338250000000     0.045650000000     0          
O        O      0.199700000000     0.371400000000     0.000000000000     0          
T        Si     0.182050000000     0.122200000000     0.190800000000     0          
T        Si     0.182800000000     0.124250000000     0.115550000000     0          
T        Si     0.236450000000     0.360400000000     0.212900000000     0          
T        Si     0.184200000000     0.375400000000     0.156150000000     0          
T        Si     0.235050000000     0.361600000000     0.095500000000     0          
T        Si     0.185250000000     0.374250000000     0.036950000000     0          
T        Si     0.218900000000     0.281100000000     0.188400000000     0          
T        Si     0.218900000000     0.281100000000     0.113800000000     0          
O        O      0.138550000000     0.435650000000     0.402950000000     0          
O        O      0.124250000000     0.472350000000     0.456350000000     0          
O        O      0.159750000000     0.410000000000     0.459450000000     0          
O        O      0.089600000000     0.410400000000     0.444350000000     0          
O        O      0.124650000000     0.473100000000     0.349750000000     0          
O        O      0.154350000000     0.407800000000     0.345600000000     0          
O        O      0.085800000000     0.414200000000     0.363850000000     0          
O        O      0.369400000000     0.458450000000     0.438500000000     0          
O        O      0.380800000000     0.475350000000     0.000000000000     0          
O        O      0.433150000000     0.484100000000     0.456900000000     0          
O        O      0.413600000000     0.413600000000     0.407050000000     0          
O        O      0.372350000000     0.460550000000     0.374800000000     0          
O        O      0.432500000000     0.483350000000     0.345750000000     0          
O        O      0.373050000000     0.469550000000     0.311450000000     0          
O        O      0.459350000000     0.459350000000     0.401100000000     0          
O        O      0.411750000000     0.411750000000     0.295650000000     0          
O        O      0.378600000000     0.449700000000     0.250000000000     0          
T        Si     0.127800000000     0.432050000000     0.440800000000     0          
T        Si     0.125750000000     0.432800000000     0.365550000000     0          
T        Si     0.389600000000     0.486450000000     0.462900000000     0          
T        Si     0.374600000000     0.434200000000     0.406150000000     0          
T        Si     0.388400000000     0.485050000000     0.345500000000     0          
T        Si     0.375750000000     0.435250000000     0.286950000000     0          
T        Si     0.468900000000     0.468900000000     0.438400000000     0          
T        Si     0.468900000000     0.468900000000     0.363800000000     0          
O        O      0.435650000000     0.138550000000     0.402950000000     0          
O        O      0.472350000000     0.124250000000     0.456350000000     0          
O        O      0.410000000000     0.159750000000     0.459450000000     0          
O        O      0.473100000000     0.124650000000     0.349750000000     0          
O        O      0.407800000000     0.154350000000     0.345600000000     0          
O        O      0.458450000000     0.369400000000     0.438500000000     0          
O        O      0.484100000000     0.433150000000     0.456900000000     0          
O        O      0.460550000000     0.372350000000     0.374800000000     0          
O        O      0.483350000000     0.432500000000     0.345750000000     0          
O        O      0.469550000000     0.373050000000     0.311450000000     0          
T        Si     0.432050000000     0.127800000000     0.440800000000     0          
T        Si     0.432800000000     0.125750000000     0.365550000000     0          
T        Si     0.486450000000     0.389600000000     0.462900000000     0          
T        Si     0.434200000000     0.374600000000     0.406150000000     0          
T        Si     0.485050000000     0.388400000000     0.345500000000     0          
T        Si     0.435250000000     0.375750000000     0.286950000000     0          
O        O      0.111450000000     0.185650000000     0.152950000000     0          
O        O      0.125750000000     0.222350000000     0.206350000000     0          
O        O      0.090250000000     0.160000000000     0.209450000000     0          
O        O      0.125350000000     0.223100000000     0.099750000000     0          
O        O      0.095650000000     0.157800000000     0.095600000000     0          
O        O      0.380600000000     0.208450000000     0.188500000000     0          
O        O      0.316850000000     0.234100000000     0.206900000000     0          
O        O      0.377650000000     0.210550000000     0.124800000000     0          
O        O      0.317500000000     0.233350000000     0.095750000000     0          
O        O      0.376950000000     0.219550000000     0.061450000000     0          
T        Si     0.122200000000     0.182050000000     0.190800000000     0          
T        Si     0.124250000000     0.182800000000     0.115550000000     0          
T        Si     0.360400000000     0.236450000000     0.212900000000     0          
T        Si     0.375400000000     0.184200000000     0.156150000000     0          
T        Si     0.361600000000     0.235050000000     0.095500000000     0          
T        Si     0.374250000000     0.185250000000     0.036950000000     0          
O        O      0.064350000000     0.361450000000     0.402950000000     0          
O        O      0.027650000000     0.375750000000     0.456350000000     0          
O        O      0.090000000000     0.340250000000     0.459450000000     0          
O        O      0.026900000000     0.375350000000     0.349750000000     0          
O        O      0.092200000000     0.345650000000     0.345600000000     0          
O        O      0.041550000000     0.130600000000     0.438500000000     0          
O        O      0.015900000000     0.066850000000     0.456900000000     0          
O        O      0.039450000000     0.127650000000     0.374800000000     0          
O        O      0.016650000000     0.067500000000     0.345750000000     0          
O        O      0.030450000000     0.126950000000     0.311450000000     0          
T        Si     0.067950000000     0.372200000000     0.440800000000     0          
T        Si     0.067200000000     0.374250000000     0.365550000000     0          
T        Si     0.013550000000     0.110400000000     0.462900000000     0          
T        Si     0.065800000000     0.125400000000     0.406150000000     0          
T        Si     0.014950000000     0.111600000000     0.345500000000     0          
T        Si     0.064750000000     0.124250000000     0.286950000000     0          
O        O      0.388550000000     0.314350000000     0.152950000000     0          
O        O      0.374250000000     0.277650000000     0.206350000000     0          
O        O      0.409750000000     0.340000000000     0.209450000000     0          
O        O      0.374650000000     0.276900000000     0.099750000000     0          
O        O      0.404350000000     0.342200000000     0.095600000000     0          
O        O      0.119400000000     0.291550000000     0.188500000000     0          
O        O      0.183150000000     0.265900000000     0.206900000000     0          
O        O      0.122350000000     0.289450000000     0.124800000000     0          
O        O      0.182500000000     0.266650000000     0.095750000000     0          
O        O      0.123050000000     0.280450000000     0.061450000000     0          
T        Si     0.377800000000     0.317950000000     0.190800000000     0          
T        Si     0.375750000000     0.317200000000     0.115550000000     0          
T        Si     0.139600000000     0.263550000000     0.212900000000     0          
T        Si     0.124600000000     0.315800000000     0.156150000000     0          
T        Si     0.138400000000     0.264950000000     0.095500000000     0          
T        Si     0.125750000000     0.314750000000     0.036950000000     0          
O        O      0.185650000000     0.111450000000     0.347050000000     0          
O        O      0.222350000000     0.125750000000     0.293650000000     0          
O        O      0.160000000000     0.090250000000     0.290550000000     0          
O        O      0.223100000000     0.125350000000     0.400250000000     0          
O        O      0.157800000000     0.095650000000     0.404400000000     0          
O        O      0.208450000000     0.380600000000     0.311500000000     0          
O        O      0.234100000000     0.316850000000     0.293100000000     0          
O        O      0.210550000000     0.377650000000     0.375200000000     0          
O        O      0.233350000000     0.317500000000     0.404250000000     0          
O        O      0.219550000000     0.376950000000     0.438550000000     0          
T        Si     0.182050000000     0.122200000000     0.309200000000     0          
T        Si     0.182800000000     0.124250000000     0.384450000000     0          
T        Si     0.236450000000     0.360400000000     0.287100000000     0          
T        Si     0.184200000000     0.375400000000     0.343850000000     0          
T        Si     0.235050000000     0.361600000000     0.404500000000     0          
T        Si     0.185250000000     0.374250000000     0.463050000000     0          
O        O      0.138550000000     0.435650000000     0.097050000000     0          
O        O      0.124250000000     0.472350000000     0.043650000000     0          
O        O      0.159750000000     0.410000000000     0.040550000000     0          
O        O      0.124650000000     0.473100000000     0.150250000000     0          
O        O      0.154350000000     0.407800000000     0.154400000000     0          
O        O      0.369400000000     0.458450000000     0.061500000000     0          
O        O      0.433150000000     0.484100000000     0.043100000000     0          
O        O      0.372350000000     0.460550000000     0.125200000000     0          
O        O      0.432500000000     0.483350000000     0.154250000000     0          
O        O      0.373050000000     0.469550000000     0.188550000000     0          
T        Si     0.127800000000     0.432050000000     0.059200000000     0          
T        Si     0.125750000000     0.432800000000     0.134450000000     0          
T        Si     0.389600000000     0.486450000000     0.037100000000     0          
T        Si     0.374600000000     0.434200000000     0.093850000000     0          
T        Si     0.388400000000     0.485050000000     0.154500000000     0          
T        Si     0.375750000000     0.435250000000     0.213050000000     0          
O        O      0.314350000000     0.388550000000     0.347050000000     0          
O        O      0.277650000000     0.374250000000     0.293650000000     0          
O        O      0.340000000000     0.409750000000     0.290550000000     0          
O        O      0.276900000000     0.374650000000     0.400250000000     0          
O        O      0.342200000000     0.404350000000     0.404400000000     0          
O        O      0.291550000000     0.119400000000     0.311500000000     0          
O        O      0.265900000000     0.183150000000     0.293100000000     0          
O        O      0.289450000000     0.122350000000     0.375200000000     0          
O        O      0.266650000000     0.182500000000     0.404250000000     0          
O        O      0.280450000000     0.123050000000     0.438550000000     0          
T        Si     0.317950000000     0.377800000000     0.309200000000     0          
T        Si     0.317200000000     0.375750000000     0.384450000000     0          
T        Si     0.263550000000     0.139600000000     0.287100000000     0          
T        Si     0.315800000000     0.124600000000     0.343850000000     0          
T        Si     0.264950000000     0.138400000000     0.404500000000     0          
T        Si     0.314750000000     0.125750000000     0.463050000000     0          
O        O      0.361450000000     0.064350000000     0.097050000000     0          
O        O      0.375750000000     0.027650000000     0.043650000000     0          
O        O      0.340250000000     0.090000000000     0.040550000000     0          
O        O      0.375350000000     0.026900000000     0.150250000000     0          
O        O      0.345650000000     0.092200000000     0.154400000000     0          
O        O      0.130600000000     0.041550000000     0.061500000000     0          
O        O      0.066850000000     0.015900000000     0.043100000000     0          
O        O      0.127650000000     0.039450000000     0.125200000000     0          
O        O      0.067500000000     0.016650000000     0.154250000000     0          
O        O      0.126950000000     0.030450000000     0.188550000000     0          
T        Si     0.372200000000     0.067950000000     0.059200000000     0          
T        Si     0.374250000000     0.067200000000     0.134450000000     0          
T        Si     0.110400000000     0.013550000000     0.037100000000     0          
T        Si     0.125400000000     0.065800000000     0.093850000000     0          
T        Si     0.111600000000     0.014950000000     0.154500000000     0          
T        Si     0.124250000000     0.064750000000     0.213050000000     0          
O        O      0.064350000000     0.361450000000     0.597050000000     0          
O        O      0.027650000000     0.375750000000     0.543650000000     0          
O        O      0.090000000000     0.340250000000     0.540550000000     0          
O        O      0.089600000000     0.410400000000     0.555650000000     0          
O        O      0.026900000000     0.375350000000     0.650250000000     0          
O        O      0.092200000000     0.345650000000     0.654400000000     0          
O        O      0.085800000000     0.414200000000     0.636150000000     0          
O        O      0.041550000000     0.130600000000     0.561500000000     0          
O        O      0.024650000000     0.119200000000     0.500000000000     0          
O        O      0.015900000000     0.066850000000     0.543100000000     0          
O        O      0.086400000000     0.086400000000     0.592950000000     0          
O        O      0.039450000000     0.127650000000     0.625200000000     0          
O        O      0.016650000000     0.067500000000     0.654250000000     0          
O        O      0.030450000000     0.126950000000     0.688550000000     0          
O        O      0.000000000000     0.000000000000     0.560500000000     0          
O        O      0.040650000000     0.040650000000     0.598900000000     0          
O        O      0.000000000000     0.000000000000     0.637700000000     0          
O        O      0.088250000000     0.088250000000     0.704350000000     0          
O        O      0.050300000000     0.121400000000     0.750000000000     0          
T        Si     0.067950000000     0.372200000000     0.559200000000     0          
T        Si     0.067200000000     0.374250000000     0.634450000000     0          
T        Si     0.013550000000     0.110400000000     0.537100000000     0          
T        Si     0.065800000000     0.125400000000     0.593850000000     0          
T        Si     0.014950000000     0.111600000000     0.654500000000     0          
T        Si     0.064750000000     0.124250000000     0.713050000000     0          
T        Si     0.031100000000     0.031100000000     0.561600000000     0          
T        Si     0.031100000000     0.031100000000     0.636200000000     0          
O        O      0.388550000000     0.314350000000     0.847050000000     0          
O        O      0.374250000000     0.277650000000     0.793650000000     0          
O        O      0.409750000000     0.340000000000     0.790550000000     0          
O        O      0.339600000000     0.339600000000     0.805650000000     0          
O        O      0.374650000000     0.276900000000     0.900250000000     0          
O        O      0.404350000000     0.342200000000     0.904400000000     0          
O        O      0.335800000000     0.335800000000     0.886150000000     0          
O        O      0.119400000000     0.291550000000     0.811500000000     0          
O        O      0.130800000000     0.274650000000     0.750000000000     0          
O        O      0.183150000000     0.265900000000     0.793100000000     0          
O        O      0.163600000000     0.336400000000     0.842950000000     0          
O        O      0.122350000000     0.289450000000     0.875200000000     0          
O        O      0.182500000000     0.266650000000     0.904250000000     0          
O        O      0.123050000000     0.280450000000     0.938550000000     0          
O        O      0.250000000000     0.250000000000     0.810500000000     0          
O        O      0.209350000000     0.290650000000     0.848900000000     0          
O        O      0.250000000000     0.250000000000     0.887700000000     0          
O        O      0.161750000000     0.338250000000     0.954350000000     0          
O        O      0.128600000000     0.300300000000     0.500000000000     0          
T        Si     0.377800000000     0.317950000000     0.809200000000     0          
T        Si     0.375750000000     0.317200000000     0.884450000000     0          
T        Si     0.139600000000     0.263550000000     0.787100000000     0          
T        Si     0.124600000000     0.315800000000     0.843850000000     0          
T        Si     0.138400000000     0.264950000000     0.904500000000     0          
T        Si     0.125750000000     0.314750000000     0.963050000000     0          
T        Si     0.218900000000     0.281100000000     0.811600000000     0          
T        Si     0.218900000000     0.281100000000     0.886200000000     0          
O        O      0.435650000000     0.138550000000     0.597050000000     0          
O        O      0.472350000000     0.124250000000     0.543650000000     0          
O        O      0.410000000000     0.159750000000     0.540550000000     0          
O        O      0.410400000000     0.089600000000     0.555650000000     0          
O        O      0.473100000000     0.124650000000     0.650250000000     0          
O        O      0.407800000000     0.154350000000     0.654400000000     0          
O        O      0.414200000000     0.085800000000     0.636150000000     0          
O        O      0.458450000000     0.369400000000     0.561500000000     0          
O        O      0.475350000000     0.380800000000     0.500000000000     0          
O        O      0.484100000000     0.433150000000     0.543100000000     0          
O        O      0.413600000000     0.413600000000     0.592950000000     0          
O        O      0.460550000000     0.372350000000     0.625200000000     0          
O        O      0.483350000000     0.432500000000     0.654250000000     0          
O        O      0.469550000000     0.373050000000     0.688550000000     0          
O        O      0.459350000000     0.459350000000     0.598900000000     0          
O        O      0.411750000000     0.411750000000     0.704350000000     0          
O        O      0.449700000000     0.378600000000     0.750000000000     0          
T        Si     0.432050000000     0.127800000000     0.559200000000     0          
T        Si     0.432800000000     0.125750000000     0.634450000000     0          
T        Si     0.486450000000     0.389600000000     0.537100000000     0          
T        Si     0.434200000000     0.374600000000     0.593850000000     0          
T        Si     0.485050000000     0.388400000000     0.654500000000     0          
T        Si     0.435250000000     0.375750000000     0.713050000000     0          
T        Si     0.468900000000     0.468900000000     0.561600000000     0          
T        Si     0.468900000000     0.468900000000     0.636200000000     0          
O        O      0.111450000000     0.185650000000     0.847050000000     0          
O        O      0.125750000000     0.222350000000     0.793650000000     0          
O        O      0.090250000000     0.160000000000     0.790550000000     0          
O        O      0.160400000000     0.160400000000     0.805650000000     0          
O        O      0.125350000000     0.223100000000     0.900250000000     0          
O        O      0.095650000000     0.157800000000     0.904400000000     0          
O        O      0.164200000000     0.164200000000     0.886150000000     0          
O        O      0.380600000000     0.208450000000     0.811500000000     0          
O        O      0.369200000000     0.225350000000     0.750000000000     0          
O        O      0.316850000000     0.234100000000     0.793100000000     0          
O        O      0.336400000000     0.163600000000     0.842950000000     0          
O        O      0.377650000000     0.210550000000     0.875200000000     0          
O        O      0.317500000000     0.233350000000     0.904250000000     0          
O        O      0.376950000000     0.219550000000     0.938550000000     0          
O        O      0.290650000000     0.209350000000     0.848900000000     0          
O        O      0.338250000000     0.161750000000     0.954350000000     0          
O        O      0.371400000000     0.199700000000     0.500000000000     0          
T        Si     0.122200000000     0.182050000000     0.809200000000     0          
T        Si     0.124250000000     0.182800000000     0.884450000000     0          
T        Si     0.360400000000     0.236450000000     0.787100000000     0          
T        Si     0.375400000000     0.184200000000     0.843850000000     0          
T        Si     0.361600000000     0.235050000000     0.904500000000     0          
T        Si     0.374250000000     0.185250000000     0.963050000000     0          
T        Si     0.281100000000     0.218900000000     0.811600000000     0          
T        Si     0.281100000000     0.218900000000     0.886200000000     0          
O        O      0.314350000000     0.388550000000     0.652950000000     0          
O        O      0.277650000000     0.374250000000     0.706350000000     0          
O        O      0.340000000000     0.409750000000     0.709450000000     0          
O        O      0.339600000000     0.339600000000     0.694350000000     0          
O        O      0.276900000000     0.374650000000     0.599750000000     0          
O        O      0.342200000000     0.404350000000     0.595600000000     0          
O        O      0.335800000000     0.335800000000     0.613850000000     0          
O        O      0.291550000000     0.119400000000     0.688500000000     0          
O        O      0.274650000000     0.130800000000     0.750000000000     0          
O        O      0.265900000000     0.183150000000     0.706900000000     0          
O        O      0.336400000000     0.163600000000     0.657050000000     0          
O        O      0.289450000000     0.122350000000     0.624800000000     0          
O        O      0.266650000000     0.182500000000     0.595750000000     0          
O        O      0.280450000000     0.123050000000     0.561450000000     0          
O        O      0.250000000000     0.250000000000     0.689500000000     0          
O        O      0.290650000000     0.209350000000     0.651100000000     0          
O        O      0.250000000000     0.250000000000     0.612300000000     0          
O        O      0.338250000000     0.161750000000     0.545650000000     0          
O        O      0.300300000000     0.128600000000     0.500000000000     0          
T        Si     0.317950000000     0.377800000000     0.690800000000     0          
T        Si     0.317200000000     0.375750000000     0.615550000000     0          
T        Si     0.263550000000     0.139600000000     0.712900000000     0          
T        Si     0.315800000000     0.124600000000     0.656150000000     0          
T        Si     0.264950000000     0.138400000000     0.595500000000     0          
T        Si     0.314750000000     0.125750000000     0.536950000000     0          
T        Si     0.281100000000     0.218900000000     0.688400000000     0          
T        Si     0.281100000000     0.218900000000     0.613800000000     0          
O        O      0.361450000000     0.064350000000     0.902950000000     0          
O        O      0.375750000000     0.027650000000     0.956350000000     0          
O        O      0.340250000000     0.090000000000     0.959450000000     0          
O        O      0.410400000000     0.089600000000     0.944350000000     0          
O        O      0.375350000000     0.026900000000     0.849750000000     0          
O        O      0.345650000000     0.092200000000     0.845600000000     0          
O        O      0.414200000000     0.085800000000     0.863850000000     0          
O        O      0.130600000000     0.041550000000     0.938500000000     0          
O        O      0.119200000000     0.024650000000     0.500000000000     0          
O        O      0.066850000000     0.015900000000     0.956900000000     0          
O        O      0.086400000000     0.086400000000     0.907050000000     0          
O        O      0.127650000000     0.039450000000     0.874800000000     0          
O        O      0.067500000000     0.016650000000     0.845750000000     0          
O        O      0.126950000000     0.030450000000     0.811450000000     0          
O        O      0.000000000000     0.000000000000     0.939500000000     0          
O        O      0.040650000000     0.040650000000     0.901100000000     0          
O        O      0.000000000000     0.000000000000     0.862300000000     0          
O        O      0.088250000000     0.088250000000     0.795650000000     0          
O        O      0.121400000000     0.050300000000     0.750000000000     0          
T        Si     0.372200000000     0.067950000000     0.940800000000     0          
T        Si     0.374250000000     0.067200000000     0.865550000000     0          
T        Si     0.110400000000     0.013550000000     0.962900000000     0          
T        Si     0.125400000000     0.065800000000     0.906150000000     0          
T        Si     0.111600000000     0.014950000000     0.845500000000     0          
T        Si     0.124250000000     0.064750000000     0.786950000000     0          
T        Si     0.031100000000     0.031100000000     0.938400000000     0          
T        Si     0.031100000000     0.031100000000     0.863800000000     0          
O        O      0.185650000000     0.111450000000     0.652950000000     0          
O        O      0.222350000000     0.125750000000     0.706350000000     0          
O        O      0.160000000000     0.090250000000     0.709450000000     0          
O        O      0.160400000000     0.160400000000     0.694350000000     0          
O        O      0.223100000000     0.125350000000     0.599750000000     0          
O        O      0.157800000000     0.095650000000     0.595600000000     0          
O        O      0.164200000000     0.164200000000     0.613850000000     0          
O        O      0.208450000000     0.380600000000     0.688500000000     0          
O        O      0.225350000000     0.369200000000     0.750000000000     0          
O        O      0.234100000000     0.316850000000     0.706900000000     0          
O        O      0.163600000000     0.336400000000     0.657050000000     0          
O        O      0.210550000000     0.377650000000     0.624800000000     0          
O        O      0.233350000000     0.317500000000     0.595750000000     0          
O        O      0.219550000000     0.376950000000     0.561450000000     0          
O        O      0.209350000000     0.290650000000     0.651100000000     0          
O        O      0.161750000000     0.338250000000     0.545650000000     0          
O        O      0.199700000000     0.371400000000     0.500000000000     0          
T        Si     0.182050000000     0.122200000000     0.690800000000     0          
T        Si     0.182800000000     0.124250000000     0.615550000000     0          
T        Si     0.236450000000     0.360400000000     0.712900000000     0          
T        Si     0.184200000000     0.375400000000     0.656150000000     0          
T        Si     0.235050000000     0.361600000000     0.595500000000     0          
T        Si     0.185250000000     0.374250000000     0.536950000000     0          
T        Si     0.218900000000     0.281100000000     0.688400000000     0          
T        Si     0.218900000000     0.281100000000     0.613800000000     0          
O        O      0.138550000000     0.435650000000     0.902950000000     0          
O        O      0.124250000000     0.472350000000     0.956350000000     0          
O        O      0.159750000000     0.410000000000     0.959450000000     0          
O        O      0.089600000000     0.410400000000     0.944350000000     0          
O        O      0.124650000000     0.473100000000     0.849750000000     0          
O        O      0.154350000000     0.407800000000     0.845600000000     0          
O        O      0.085800000000     0.414200000000     0.863850000000     0          
O        O      0.369400000000     0.458450000000     0.938500000000     0          
O        O      0.380800000000     0.475350000000     0.500000000000     0          
O        O      0.433150000000     0.484100000000     0.956900000000     0          
O        O      0.413600000000     0.413600000000     0.907050000000     0          
O        O      0.372350000000     0.460550000000     0.874800000000     0          
O        O      0.432500000000     0.483350000000     0.845750000000     0          
O        O      0.373050000000     0.469550000000     0.811450000000     0          
O        O      0.459350000000     0.459350000000     0.901100000000     0          
O        O      0.411750000000     0.411750000000     0.795650000000     0          
O        O      0.378600000000     0.449700000000     0.750000000000     0          
T        Si     0.127800000000     0.432050000000     0.940800000000     0          
T        Si     0.125750000000     0.432800000000     0.865550000000     0          
T        Si     0.389600000000     0.486450000000     0.962900000000     0          
T        Si     0.374600000000     0.434200000000     0.906150000000     0          
T        Si     0.388400000000     0.485050000000     0.845500000000     0          
T        Si     0.375750000000     0.435250000000     0.786950000000     0          
T        Si     0.468900000000     0.468900000000     0.938400000000     0          
T        Si     0.468900000000     0.468900000000     0.863800000000     0          
O        O      0.435650000000     0.138550000000     0.902950000000     0          
O        O      0.472350000000     0.124250000000     0.956350000000     0          
O        O      0.410000000000     0.159750000000     0.959450000000     0          
O        O      0.473100000000     0.124650000000     0.849750000000     0          
O        O      0.407800000000     0.154350000000     0.845600000000     0          
O        O      0.458450000000     0.369400000000     0.938500000000     0          
O        O      0.484100000000     0.433150000000     0.956900000000     0          
O        O      0.460550000000     0.372350000000     0.874800000000     0          
O        O      0.483350000000     0.432500000000     0.845750000000     0          
O        O      0.469550000000     0.373050000000     0.811450000000     0          
T        Si     0.432050000000     0.127800000000     0.940800000000     0          
T        Si     0.432800000000     0.125750000000     0.865550000000     0          
T        Si     0.486450000000     0.389600000000     0.962900000000     0          
T        Si     0.434200000000     0.374600000000     0.906150000000     0          
T        Si     0.485050000000     0.388400000000     0.845500000000     0          
T        Si     0.435250000000     0.375750000000     0.786950000000     0          
O        O      0.111450000000     0.185650000000     0.652950000000     0          
O        O      0.125750000000     0.222350000000     0.706350000000     0          
O        O      0.090250000000     0.160000000000     0.709450000000     0          
O        O      0.125350000000     0.223100000000     0.599750000000     0          
O        O      0.095650000000     0.157800000000     0.595600000000     0          
O        O      0.380600000000     0.208450000000     0.688500000000     0          
O        O      0.316850000000     0.234100000000     0.706900000000     0          
O        O      0.377650000000     0.210550000000     0.624800000000     0          
O        O      0.317500000000     0.233350000000     0.595750000000     0          
O        O      0.376950000000     0.219550000000     0.561450000000     0          
T        Si     0.122200000000     0.182050000000     0.690800000000     0          
T        Si     0.124250000000     0.182800000000     0.615550000000     0          
T        Si     0.360400000000     0.236450000000     0.712900000000     0          
T        Si     0.375400000000     0.184200000000     0.656150000000     0          
T        Si     0.361600000000     0.235050000000     0.595500000000     0          
T        Si     0.374250000000     0.185250000000     0.536950000000     0          
O        O      0.064350000000     0.361450000000     0.902950000000     0          
O        O      0.027650000000     0.375750000000     0.956350000000     0          
O        O      0.090000000000     0.340250000000     0.959450000000     0          
O        O      0.026900000000     0.375350000000     0.849750000000     0          
O        O      0.092200000000     0.345650000000     0.845600000000     0          
O        O      0.041550000000     0.130600000000     0.938500000000     0          
O        O      0.015900000000     0.066850000000     0.956900000000     0          
O        O      0.039450000000     0.127650000000     0.874800000000     0          
O        O      0.016650000000     0.067500000000     0.845750000000     0          
O        O      0.030450000000     0.126950000000     0.811450000000     0          
T        Si     0.067950000000     0.372200000000     0.940800000000     0          
T        Si     0.067200000000     0.374250000000     0.865550000000     0          
T        Si     0.013550000000     0.110400000000     0.962900000000     0          
T        Si     0.065800000000     0.125400000000     0.906150000000     0          
T        Si     0.014950000000     0.111600000000     0.845500000000     0          
T        Si     0.064750000000     0.124250000000     0.786950000000     0          
O        O      0.388550000000     0.314350000000     0.652950000000     0          
O        O      0.374250000000     0.277650000000     0.706350000000     0          
O        O      0.409750000000     0.340000000000     0.709450000000     0          
O        O      0.374650000000     0.276900000000     0.599750000000     0          
O        O      0.404350000000     0.342200000000     0.595600000000     0          
O        O      0.119400000000     0.291550000000     0.688500000000     0          
O        O      0.183150000000     0.265900000000     0.706900000000     0          
O        O      0.122350000000     0.289450000000     0.624800000000     0          
O        O      0.182500000000     0.266650000000     0.595750000000     0          
O        O      0.123050000000     0.280450000000     0.561450000000     0          
T        Si     0.377800000000     0.317950000000     0.690800000000     0          
T        Si     0.375750000000     0.317200000000     0.615550000000     0          
T        Si     0.139600000000     0.263550000000     0.712900000000     0          
T        Si     0.124600000000     0.315800000000     0.656150000000     0          
T        Si     0.138400000000     0.264950000000     0.595500000000     0          
T        Si     0.125750000000     0.314750000000     0.536950000000     0          
O        O      0.185650000000     0.111450000000     0.847050000000     0          
O        O      0.222350000000     0.125750000000     0.793650000000     0          
O        O      0.160000000000     0.090250000000     0.790550000000     0          
O        O      0.223100000000     0.125350000000     0.900250000000     0          
O        O      0.157800000000     0.095650000000     0.904400000000     0          
O        O      0.208450000000     0.380600000000     0.811500000000     0          
O        O      0.234100000000     0.316850000000     0.793100000000     0          
O        O      0.210550000000     0.377650000000     0.875200000000     0          
O        O      0.233350000000     0.317500000000     0.904250000000     0          
O        O      0.219550000000     0.376950000000     0.938550000000     0          
T        Si     0.182050000000     0.122200000000     0.809200000000     0          
T        Si     0.182800000000     0.124250000000     0.884450000000     0          
T        Si     0.236450000000     0.360400000000     0.787100000000     0          
T        Si     0.184200000000     0.375400000000     0.843850000000     0          
T        Si     0.235050000000     0.361600000000     0.904500000000     0          
T        Si     0.185250000000     0.374250000000     0.963050000000     0          
O        O      0.138550000000     0.435650000000     0.597050000000     0          
O        O      0.124250000000     0.472350000000     0.543650000000     0          
O        O      0.159750000000     0.410000000000     0.540550000000     0          
O        O      0.124650000000     0.473100000000     0.650250000000     0          
O        O      0.154350000000     0.407800000000     0.654400000000     0          
O        O      0.369400000000     0.458450000000     0.561500000000     0          
O        O      0.433150000000     0.484100000000     0.543100000000     0          
O        O      0.372350000000     0.460550000000     0.625200000000     0          
O        O      0.432500000000     0.483350000000     0.654250000000     0          
O        O      0.373050000000     0.469550000000     0.688550000000     0          
T        Si     0.127800000000     0.432050000000     0.559200000000     0          
T        Si     0.125750000000     0.432800000000     0.634450000000     0          
T        Si     0.389600000000     0.486450000000     0.537100000000     0          
T        Si     0.374600000000     0.434200000000     0.593850000000     0          
T        Si     0.388400000000     0.485050000000     0.654500000000     0          
T        Si     0.375750000000     0.435250000000     0.713050000000     0          
O        O      0.314350000000     0.388550000000     0.847050000000     0          
O        O      0.277650000000     0.374250000000     0.793650000000     0          
O        O      0.340000000000     0.409750000000     0.790550000000     0          
O        O      0.276900000000     0.374650000000     0.900250000000     0          
O        O      0.342200000000     0.404350000000     0.904400000000     0          
O        O      0.291550000000     0.119400000000     0.811500000000     0          
O        O      0.265900000000     0.183150000000     0.793100000000     0          
O        O      0.289450000000     0.122350000000     0.875200000000     0          
O        O      0.266650000000     0.182500000000     0.904250000000     0          
O        O      0.280450000000     0.123050000000     0.938550000000     0          
T        Si     0.317950000000     0.377800000000     0.809200000000     0          
T        Si     0.317200000000     0.375750000000     0.884450000000     0          
T        Si     0.263550000000     0.139600000000     0.787100000000     0          
T        Si     0.315800000000     0.124600000000     0.843850000000     0          
T        Si     0.264950000000     0.138400000000     0.904500000000     0          
T        Si     0.314750000000     0.125750000000     0.963050000000     0          
O        O      0.361450000000     0.064350000000     0.597050000000     0          
O        O      0.375750000000     0.027650000000     0.543650000000     0          
O        O      0.340250000000     0.090000000000     0.540550000000     0          
O        O      0.375350000000     0.026900000000     0.650250000000     0          
O        O      0.345650000000     0.092200000000     0.654400000000     0          
O        O      0.130600000000     0.041550000000     0.561500000000     0          
O        O      0.066850000000     0.015900000000     0.543100000000     0          
O        O      0.127650000000     0.039450000000     0.625200000000     0          
O        O      0.067500000000     0.016650000000     0.654250000000     0          
O        O      0.126950000000     0.030450000000     0.688550000000     0          
T        Si     0.372200000000     0.067950000000     0.559200000000     0          
T        Si     0.374250000000     0.067200000000     0.634450000000     0          
T        Si     0.110400000000     0.013550000000     0.537100000000     0          
T        Si     0.125400000000     0.065800000000     0.593850000000     0          
T        Si     0.111600000000     0.014950000000     0.654500000000     0          
T        Si     0.124250000000     0.064750000000     0.713050000000     0          
O        O      0.064350000000     0.861450000000     0.097050000000     0          
O        O      0.027650000000     0.875750000000     0.043650000000     0          
O        O      0.090000000000     0.840250000000     0.040550000000     0          
O        O      0.089600000000     0.910400000000     0.055650000000     0          
O        O      0.026900000000     0.875350000000     0.150250000000     0          
O        O      0.092200000000     0.845650000000     0.154400000000     0          
O        O      0.085800000000     0.914200000000     0.136150000000     0          
O        O      0.041550000000     0.630600000000     0.061500000000     0          
O        O      0.024650000000     0.619200000000     0.000000000000     0          
O        O      0.015900000000     0.566850000000     0.043100000000     0          
O        O      0.086400000000     0.586400000000     0.092950000000     0          
O        O      0.039450000000     0.627650000000     0.125200000000     0          
O        O      0.016650000000     0.567500000000     0.154250000000     0          
O        O      0.030450000000     0.626950000000     0.188550000000     0          
O        O      0.000000000000     0.500000000000     0.060500000000     0          
O        O      0.040650000000     0.540650000000     0.098900000000     0          
O        O      0.000000000000     0.500000000000     0.137700000000     0          
O        O      0.088250000000     0.588250000000     0.204350000000     0          
O        O      0.050300000000     0.621400000000     0.250000000000     0          
T        Si     0.067950000000     0.872200000000     0.059200000000     0          
T        Si     0.067200000000     0.874250000000     0.134450000000     0          
T        Si     0.013550000000     0.610400000000     0.037100000000     0          
T        Si     0.065800000000     0.625400000000     0.093850000000     0          
T        Si     0.014950000000     0.611600000000     0.154500000000     0          
T        Si     0.064750000000     0.624250000000     0.213050000000     0          
T        Si     0.031100000000     0.531100000000     0.061600000000     0          
T        Si     0.031100000000     0.531100000000     0.136200000000     0          
O        O      0.388550000000     0.814350000000     0.347050000000     0          
O        O      0.374250000000     0.777650000000     0.293650000000     0          
O        O      0.409750000000     0.840000000000     0.290550000000     0          
O        O      0.339600000000     0.839600000000     0.305650000000     0          
O        O      0.374650000000     0.776900000000     0.400250000000     0          
O        O      0.404350000000     0.842200000000     0.404400000000     0          
O        O      0.335800000000     0.835800000000     0.386150000000     0          
O        O      0.119400000000     0.791550000000     0.311500000000     0          
O        O      0.130800000000     0.774650000000     0.250000000000     0          
O        O      0.183150000000     0.765900000000     0.293100000000     0          
O        O      0.163600000000     0.836400000000     0.342950000000     0          
O        O      0.122350000000     0.789450000000     0.375200000000     0          
O        O      0.182500000000     0.766650000000     0.404250000000     0          
O        O      0.123050000000     0.780450000000     0.438550000000     0          
O        O      0.250000000000     0.750000000000     0.310500000000     0          
O        O      0.209350000000     0.790650000000     0.348900000000     0          
O        O      0.250000000000     0.750000000000     0.387700000000     0          
O        O      0.161750000000     0.838250000000     0.454350000000     0          
O        O      0.128600000000     0.800300000000     0.000000000000     0          
T        Si     0.377800000000     0.817950000000     0.309200000000     0          
T        Si     0.375750000000     0.817200000000     0.384450000000     0          
T        Si     0.139600000000     0.763550000000     0.287100000000     0          
T        Si     0.124600000000     0.815800000000     0.343850000000     0          
T        Si     0.138400000000     0.764950000000     0.404500000000     0          
T        Si     0.125750000000     0.814750000000     0.463050000000     0          
T        Si     0.218900000000     0.781100000000     0.311600000000     0          
T        Si     0.218900000000     0.781100000000     0.386200000000     0          
O        O      0.435650000000     0.638550000000     0.097050000000     0          
O        O      0.472350000000     0.624250000000     0.043650000000     0          
O        O      0.410000000000     0.659750000000     0.040550000000     0          
O        O      0.410400000000     0.589600000000     0.055650000000     0          
O        O      0.473100000000     0.624650000000     0.150250000000     0          
O        O      0.407800000000     0.654350000000     0.154400000000     0          
O        O      0.414200000000     0.585800000000     0.136150000000     0          
O        O      0.458450000000     0.869400000000     0.061500000000     0          
O        O      0.475350000000     0.880800000000     0.000000000000     0          
O        O      0.484100000000     0.933150000000     0.043100000000     0          
O        O      0.413600000000     0.913600000000     0.092950000000     0          
O        O      0.460550000000     0.872350000000     0.125200000000     0          
O        O      0.483350000000     0.932500000000     0.154250000000     0          
O        O      0.469550000000     0.873050000000     0.188550000000     0          
O        O      0.459350000000     0.959350000000     0.098900000000     0          
O        O      0.411750000000     0.911750000000     0.204350000000     0          
O        O      0.449700000000     0.878600000000     0.250000000000     0          
T        Si     0.432050000000     0.627800000000     0.059200000000     0          
T        Si     0.432800000000     0.625750000000     0.134450000000     0          
T        Si     0.486450000000     0.889600000000     0.037100000000     0          
T        Si     0.434200000000     0.874600000000     0.093850000000     0          
T        Si     0.485050000000     0.888400000000     0.154500000000     0          
T        Si     0.435250000000     0.875750000000     0.213050000000     0          
T        Si     0.468900000000     0.968900000000     0.061600000000     0          
T        Si     0.468900000000     0.968900000000     0.136200000000     0          
O        O      0.111450000000     0.685650000000     0.347050000000     0          
O        O      0.125750000000     0.722350000000     0.293650000000     0          
O        O      0.090250000000     0.660000000000     0.290550000000     0          
O        O      0.160400000000     0.660400000000     0.305650000000     0          
O        O      0.125350000000     0.723100000000     0.400250000000     0          
O        O      0.095650000000     0.657800000000     0.404400000000     0          
O        O      0.164200000000     0.664200000000     0.386150000000     0          
O        O      0.380600000000     0.708450000000     0.311500000000     0          
O        O      0.369200000000     0.725350000000     0.250000000000     0          
O        O      0.316850000000     0.734100000000     0.293100000000     0          
O        O      0.336400000000     0.663600000000     0.342950000000     0          
O        O      0.377650000000     0.710550000000     0.375200000000     0          
O        O      0.317500000000     0.733350000000     0.404250000000     0          
O        O      0.376950000000     0.719550000000     0.438550000000     0          
O        O      0.290650000000     0.709350000000     0.348900000000     0          
O        O      0.338250000000     0.661750000000     0.454350000000     0          
O        O      0.371400000000     0.699700000000     0.000000000000     0          
T        Si     0.122200000000     0.682050000000     0.309200000000     0          
T        Si     0.124250000000     0.682800000000     0.384450000000     0          
T        Si     0.360400000000     0.736450000000     0.287100000000     0          
T        Si     0.375400000000     0.684200000000     0.343850000000     0          
T        Si     0.361600000000     0.735050000000     0.404500000000     0          
T        Si     0.374250000000     0.685250000000     0.463050000000     0          
T        Si     0.281100000000     0.718900000000     0.311600000000     0          
T        Si     0.281100000000     0.718900000000     0.386200000000     0          
O        O      0.314350000000     0.888550000000     0.152950000000     0          
O        O      0.277650000000     0.874250000000     0.206350000000     0          
O        O      0.340000000000     0.909750000000     0.209450000000     0          
O        O      0.339600000000     0.839600000000     0.194350000000     0          
O        O      0.276900000000     0.874650000000     0.099750000000     0          
O        O      0.342200000000     0.904350000000     0.095600000000     0          
O        O      0.335800000000     0.835800000000     0.113850000000     0          
O        O      0.291550000000     0.619400000000     0.188500000000     0          
O        O      0.274650000000     0.630800000000     0.250000000000     0          
O        O      0.265900000000     0.683150000000     0.206900000000     0          
O        O      0.336400000000     0.663600000000     0.157050000000     0          
O        O      0.289450000000     0.622350000000     0.124800000000     0          
O        O      0.266650000000     0.682500000000     0.095750000000     0          
O        O      0.280450000000     0.623050000000     0.061450000000     0          
O        O      0.250000000000     0.750000000000     0.189500000000     0          
O        O      0.290650000000     0.709350000000     0.151100000000     0          
O        O      0.250000000000     0.750000000000     0.112300000000     0          
O        O      0.338250000000     0.661750000000     0.045650000000     0          
O        O      0.300300000000     0.628600000000     0.000000000000     0          
T        Si     0.317950000000     0.877800000000     0.190800000000     0          
T        Si     0.317200000000     0.875750000000     0.115550000000     0          
T        Si     0.263550000000     0.639600000000     0.212900000000     0          
T        Si     0.315800000000     0.624600000000     0.156150000000     0          
T        Si     0.264950000000     0.638400000000     0.095500000000     0          
T        Si     0.314750000000     0.625750000000     0.036950000000     0          
T        Si     0.281100000000     0.718900000000     0.188400000000     0          
T        Si     0.281100000000     0.718900000000     0.113800000000     0          
O        O      0.361450000000     0.564350000000     0.402950000000     0          
O        O      0.375750000000     0.527650000000     0.456350000000     0          
O        O      0.340250000000     0.590000000000     0.459450000000     0          
O        O      0.410400000000     0.589600000000     0.444350000000     0          
O        O      0.375350000000     0.526900000000     0.349750000000     0          
O        O      0.345650000000     0.592200000000     0.345600000000     0          
O        O      0.414200000000     0.585800000000     0.363850000000     0          
O        O      0.130600000000     0.541550000000     0.438500000000     0          
O        O      0.119200000000     0.524650000000     0.000000000000     0          
O        O      0.066850000000     0.515900000000     0.456900000000     0          
O        O      0.086400000000     0.586400000000     0.407050000000     0          
O        O      0.127650000000     0.539450000000     0.374800000000     0          
O        O      0.067500000000     0.516650000000     0.345750000000     0          
O        O      0.126950000000     0.530450000000     0.311450000000     0          
O        O      0.000000000000     0.500000000000     0.439500000000     0          
O        O      0.040650000000     0.540650000000     0.401100000000     0          
O        O      0.000000000000     0.500000000000     0.362300000000     0          
O        O      0.088250000000     0.588250000000     0.295650000000     0          
O        O      0.121400000000     0.550300000000     0.250000000000     0          
T        Si     0.372200000000     0.567950000000     0.440800000000     0          
T        Si     0.374250000000     0.567200000000     0.365550000000     0          
T        Si     0.110400000000     0.513550000000     0.462900000000     0          
T        Si     0.125400000000     0.565800000000     0.406150000000     0          
T        Si     0.111600000000     0.514950000000     0.345500000000     0          
T        Si     0.124250000000     0.564750000000     0.286950000000     0          
T        Si     0.031100000000     0.531100000000     0.438400000000     0          
T        Si     0.031100000000     0.531100000000     0.363800000000     0          
O        O      0.185650000000     0.611450000000     0.152950000000     0          
O        O      0.222350000000     0.625750000000     0.206350000000     0          
O        O      0.160000000000     0.590250000000     0.209450000000     0          
O        O      0.160400000000     0.660400000000     0.194350000000     0          
O        O      0.223100000000     0.625350000000     0.099750000000     0          
O        O      0.157800000000     0.595650000000     0.095600000000     0          
O        O      0.164200000000     0.664200000000     0.113850000000     0          
O        O      0.208450000000     0.880600000000     0.188500000000     0          
O        O      0.225350000000     0.869200000000     0.250000000000     0          
O        O      0.234100000000     0.816850000000     0.206900000000     0          
O        O      0.163600000000     0.836400000000     0.157050000000     0          
O        O      0.210550000000     0.877650000000     0.124800000000     0          
O        O      0.233350000000     0.817500000000     0.095750000000     0          
O        O      0.219550000000     0.876950000000     0.061450000000     0          
O        O      0.209350000000     0.790650000000     0.151100000000     0          
O        O      0.161750000000     0.838250000000     0.045650000000     0          
O        O      0.199700000000     0.871400000000     0.000000000000     0          
T        Si     0.182050000000     0.622200000000     0.190800000000     0          
T        Si     0.182800000000     0.624250000000     0.115550000000     0          
T        Si     0.236450000000     0.860400000000     0.212900000000     0          
T        Si     0.184200000000     0.875400000000     0.156150000000     0          
T        Si     0.235050000000     0.861600000000     0.095500000000     0          
T        Si     0.185250000000     0.874250000000     0.036950000000     0          
T        Si     0.218900000000     0.781100000000     0.188400000000     0          
T        Si     0.218900000000     0.781100000000     0.113800000000     0          
O        O      0.138550000000     0.935650000000     0.402950000000     0          
O        O      0.124250000000     0.972350000000     0.456350000000     0          
O        O      0.159750000000     0.910000000000     0.459450000000     0          
O        O      0.089600000000     0.910400000000     0.444350000000     0          
O        O      0.124650000000     0.973100000000     0.349750000000     0          
O        O      0.154350000000     0.907800000000     0.345600000000     0          
O        O      0.085800000000     0.914200000000     0.363850000000     0          
O        O      0.369400000000     0.958450000000     0.438500000000     0          
O        O      0.380800000000     0.975350000000     0.000000000000     0          
O        O      0.433150000000     0.984100000000     0.456900000000     0          
O        O      0.413600000000     0.913600000000     0.407050000000     0          
O        O      0.372350000000     0.960550000000     0.374800000000     0          
O        O      0.432500000000     0.983350000000     0.345750000000     0          
O        O      0.373050000000     0.969550000000     0.311450000000     0          
O        O      0.459350000000     0.959350000000     0.401100000000     0          
O        O      0.411750000000     0.911750000000     0.295650000000     0          
O        O      0.378600000000     0.949700000000     0.250000000000     0          
T        Si     0.127800000000     0.932050000000     0.440800000000     0          
T        Si     0.125750000000     0.932800000000     0.365550000000     0          
T        Si     0.389600000000     0.986450000000     0.462900000000     0          
T        Si     0.374600000000     0.934200000000     0.406150000000     0          
T        Si     0.388400000000     0.985050000000     0.345500000000     0          
T        Si     0.375750000000     0.935250000000     0.286950000000     0          
T        Si     0.468900000000     0.968900000000     0.438400000000     0          
T        Si     0.468900000000     0.968900000000     0.363800000000     0          
O        O      0.435650000000     0.638550000000     0.402950000000     0          
O        O      0.472350000000     0.624250000000     0.456350000000     0          
O        O      0.410000000000     0.659750000000     0.459450000000     0          
O        O      0.473100000000     0.624650000000     0.349750000000     0          
O        O      0.407800000000     0.654350000000     0.345600000000     0          
O        O      0.458450000000     0.869400000000     0.438500000000     0          
O        O      0.484100000000     0.933150000000     0.456900000000     0          
O        O      0.460550000000     0.872350000000     0.374800000000     0          
O        O      0.483350000000     0.932500000000     0.345750000000     0          
O        O      0.469550000000     0.873050000000     0.311450000000     0          
T        Si     0.432050000000     0.627800000000     0.440800000000     0          
T        Si     0.432800000000     0.625750000000     0.365550000000     0          
T        Si     0.486450000000     0.889600000000     0.462900000000     0          
T        Si     0.434200000000     0.874600000000     0.406150000000     0          
T        Si     0.485050000000     0.888400000000     0.345500000000     0          
T        Si     0.435250000000     0.875750000000     0.286950000000     0          
O        O      0.111450000000     0.685650000000     0.152950000000     0          
O        O      0.125750000000     0.722350000000     0.206350000000     0          
O        O      0.090250000000     0.660000000000     0.209450000000     0          
O        O      0.125350000000     0.723100000000     0.099750000000     0          
O        O      0.095650000000     0.657800000000     0.095600000000     0          
O        O      0.380600000000     0.708450000000     0.188500000000     0          
O        O      0.316850000000     0.734100000000     0.206900000000     0          
O        O      0.377650000000     0.710550000000     0.124800000000     0          
O        O      0.317500000000     0.733350000000     0.095750000000     0          
O        O      0.376950000000     0.719550000000     0.061450000000     0          
T        Si     0.122200000000     0.682050000000     0.190800000000     0          
T        Si     0.124250000000     0.682800000000     0.115550000000     0          
T        Si     0.360400000000     0.736450000000     0.212900000000     0          
T        Si     0.375400000000     0.684200000000     0.156150000000     0          
T        Si     0.361600000000     0.735050000000     0.095500000000     0          
T        Si     0.374250000000     0.685250000000     0.036950000000     0          
O        O      0.064350000000     0.861450000000     0.402950000000     0          
O        O      0.027650000000     0.875750000000     0.456350000000     0          
O        O      0.090000000000     0.840250000000     0.459450000000     0          
O        O      0.026900000000     0.875350000000     0.349750000000     0          
O        O      0.092200000000     0.845650000000     0.345600000000     0          
O        O      0.041550000000     0.630600000000     0.438500000000     0          
O        O      0.015900000000     0.566850000000     0.456900000000     0          
O        O      0.039450000000     0.627650000000     0.374800000000     0          
O        O      0.016650000000     0.567500000000     0.345750000000     0          
O        O      0.030450000000     0.626950000000     0.311450000000     0          
T        Si     0.067950000000     0.872200000000     0.440800000000     0          
T        Si     0.067200000000     0.874250000000     0.365550000000     0          
T        Si     0.013550000000     0.610400000000     0.462900000000     0          
T        Si     0.065800000000     0.625400000000     0.406150000000     0          
T        Si     0.014950000000     0.611600000000     0.345500000000     0          
T        Si     0.064750000000     0.624250000000     0.286950000000     0          
O        O      0.388550000000     0.814350000000     0.152950000000     0          
O        O      0.374250000000     0.777650000000     0.206350000000     0          
O        O      0.409750000000     0.840000000000     0.209450000000     0          
O        O      0.374650000000     0.776900000000     0.099750000000     0          
O        O      0.404350000000     0.842200000000     0.095600000000     0          
O        O      0.119400000000     0.791550000000     0.188500000000     0          
O        O      0.183150000000     0.765900000000     0.206900000000     0          
O        O      0.122350000000     0.789450000000     0.124800000000     0          
O        O      0.182500000000     0.766650000000     0.095750000000     0          
O        O      0.123050000000     0.780450000000     0.061450000000     0          
T        Si     0.377800000000     0.817950000000     0.190800000000     0          
T        Si     0.375750000000     0.817200000000     0.115550000000     0          
T        Si     0.139600000000     0.763550000000     0.212900000000     0          
T        Si     0.124600000000     0.815800000000     0.156150000000     0          
T        Si     0.138400000000     0.764950000000     0.095500000000     0          
T        Si     0.125750000000     0.814750000000     0.036950000000     0          
O        O      0.185650000000     0.611450000000     0.347050000000     0          
O        O      0.222350000000     0.625750000000     0.293650000000     0          
O        O      0.160000000000     0.590250000000     0.290550000000     0          
O        O      0.223100000000     0.625350000000     0.400250000000     0          
O        O      0.157800000000     0.595650000000     0.404400000000     0          
O        O      0.208450000000     0.880600000000     0.311500000000     0          
O        O      0.234100000000     0.816850000000     0.293100000000     0          
O        O      0.210550000000     0.877650000000     0.375200000000     0          
O        O      0.233350000000     0.817500000000     0.404250000000     0          
O        O      0.219550000000     0.876950000000     0.438550000000     0          
T        Si     0.182050000000     0.622200000000     0.309200000000     0          
T        Si     0.182800000000     0.624250000000     0.384450000000     0          
T        Si     0.236450000000     0.860400000000     0.287100000000     0          
T        Si     0.184200000000     0.875400000000     0.343850000000     0          
T        Si     0.235050000000     0.861600000000     0.404500000000     0          
T        Si     0.185250000000     0.874250000000     0.463050000000     0          
O        O      0.138550000000     0.935650000000     0.097050000000     0          
O        O      0.124250000000     0.972350000000     0.043650000000     0          
O        O      0.159750000000     0.910000000000     0.040550000000     0          
O        O      0.124650000000     0.973100000000     0.150250000000     0          
O        O      0.154350000000     0.907800000000     0.154400000000     0          
O        O      0.369400000000     0.958450000000     0.061500000000     0          
O        O      0.433150000000     0.984100000000     0.043100000000     0          
O        O      0.372350000000     0.960550000000     0.125200000000     0          
O        O      0.432500000000     0.983350000000     0.154250000000     0          
O        O      0.373050000000     0.969550000000     0.188550000000     0          
T        Si     0.127800000000     0.932050000000     0.059200000000     0          
T        Si     0.125750000000     0.932800000000     0.134450000000     0          
T        Si     0.389600000000     0.986450000000     0.037100000000     0          
T        Si     0.374600000000     0.934200000000     0.093850000000     0          
T        Si     0.388400000000     0.985050000000     0.154500000000     0          
T        Si     0.375750000000     0.935250000000     0.213050000000     0          
O        O      0.314350000000     0.888550000000     0.347050000000     0          
O        O      0.277650000000     0.874250000000     0.293650000000     0          
O        O      0.340000000000     0.909750000000     0.290550000000     0          
O        O      0.276900000000     0.874650000000     0.400250000000     0          
O        O      0.342200000000     0.904350000000     0.404400000000     0          
O        O      0.291550000000     0.619400000000     0.311500000000     0          
O        O      0.265900000000     0.683150000000     0.293100000000     0          
O        O      0.289450000000     0.622350000000     0.375200000000     0          
O        O      0.266650000000     0.682500000000     0.404250000000     0          
O        O      0.280450000000     0.623050000000     0.438550000000     0          
T        Si     0.317950000000     0.877800000000     0.309200000000     0          
T        Si     0.317200000000     0.875750000000     0.384450000000     0          
T        Si     0.263550000000     0.639600000000     0.287100000000     0          
T        Si     0.315800000000     0.624600000000     0.343850000000     0          
T        Si     0.264950000000     0.638400000000     0.404500000000     0          
T        Si     0.314750000000     0.625750000000     0.463050000000     0          
O        O      0.361450000000     0.564350000000     0.097050000000     0          
O        O      0.375750000000     0.527650000000     0.043650000000     0          
O        O      0.340250000000     0.590000000000     0.040550000000     0          
O        O      0.375350000000     0.526900000000     0.150250000000     0          
O        O      0.345650000000     0.592200000000     0.154400000000     0          
O        O      0.130600000000     0.541550000000     0.061500000000     0          
O        O      0.066850000000     0.515900000000     0.043100000000     0          
O        O      0.127650000000     0.539450000000     0.125200000000     0          
O        O      0.067500000000     0.516650000000     0.154250000000     0          
O        O      0.126950000000     0.530450000000     0.188550000000     0          
T        Si     0.372200000000     0.567950000000     0.059200000000     0          
T        Si     0.374250000000     0.567200000000     0.134450000000     0          
T        Si     0.110400000000     0.513550000000     0.037100000000     0          
T        Si     0.125400000000     0.565800000000     0.093850000000     0          
T        Si     0.111600000000     0.514950000000     0.154500000000     0          
T        Si     0.124250000000     0.564750000000     0.213050000000     0          
O        O      0.064350000000     0.861450000000     0.597050000000     0          
O        O      0.027650000000     0.875750000000     0.543650000000     0          
O        O      0.090000000000     0.840250000000     0.540550000000     0          
O        O      0.089600000000     0.910400000000     0.555650000000     0          
O        O      0.026900000000     0.875350000000     0.650250000000     0          
O        O      0.092200000000     0.845650000000     0.654400000000     0          
O        O      0.085800000000     0.914200000000     0.636150000000     0          
O        O      0.041550000000     0.630600000000     0.561500000000     0          
O        O      0.024650000000     0.619200000000     0.500000000000     0          
O        O      0.015900000000     0.566850000000     0.543100000000     0          
O        O      0.086400000000     0.586400000000     0.592950000000     0          
O        O      0.039450000000     0.627650000000     0.625200000000     0          
O        O      0.016650000000     0.567500000000     0.654250000000     0          
O        O      0.030450000000     0.626950000000     0.688550000000     0          
O        O      0.000000000000     0.500000000000     0.560500000000     0          
O        O      0.040650000000     0.540650000000     0.598900000000     0          
O        O      0.000000000000     0.500000000000     0.637700000000     0          
O        O      0.088250000000     0.588250000000     0.704350000000     0          
O        O      0.050300000000     0.621400000000     0.750000000000     0          
T        Si     0.067950000000     0.872200000000     0.559200000000     0          
T        Si     0.067200000000     0.874250000000     0.634450000000     0          
T        Si     0.013550000000     0.610400000000     0.537100000000     0          
T        Si     0.065800000000     0.625400000000     0.593850000000     0          
T        Si     0.014950000000     0.611600000000     0.654500000000     0          
T        Si     0.064750000000     0.624250000000     0.713050000000     0          
T        Si     0.031100000000     0.531100000000     0.561600000000     0          
T        Si     0.031100000000     0.531100000000     0.636200000000     0          
O        O      0.388550000000     0.814350000000     0.847050000000     0          
O        O      0.374250000000     0.777650000000     0.793650000000     0          
O        O      0.409750000000     0.840000000000     0.790550000000     0          
O        O      0.339600000000     0.839600000000     0.805650000000     0          
O        O      0.374650000000     0.776900000000     0.900250000000     0          
O        O      0.404350000000     0.842200000000     0.904400000000     0          
O        O      0.335800000000     0.835800000000     0.886150000000     0          
O        O      0.119400000000     0.791550000000     0.811500000000     0          
O        O      0.130800000000     0.774650000000     0.750000000000     0          
O        O      0.183150000000     0.765900000000     0.793100000000     0          
O        O      0.163600000000     0.836400000000     0.842950000000     0          
O        O      0.122350000000     0.789450000000     0.875200000000     0          
O        O      0.182500000000     0.766650000000     0.904250000000     0          
O        O      0.123050000000     0.780450000000     0.938550000000     0          
O        O      0.250000000000     0.750000000000     0.810500000000     0          
O        O      0.209350000000     0.790650000000     0.848900000000     0          
O        O      0.250000000000     0.750000000000     0.887700000000     0          
O        O      0.161750000000     0.838250000000     0.954350000000     0          
O        O      0.128600000000     0.800300000000     0.500000000000     0          
T        Si     0.377800000000     0.817950000000     0.809200000000     0          
T        Si     0.375750000000     0.817200000000     0.884450000000     0          
T        Si     0.139600000000     0.763550000000     0.787100000000     0          
T        Si     0.124600000000     0.815800000000     0.843850000000     0          
T        Si     0.138400000000     0.764950000000     0.904500000000     0          
T        Si     0.125750000000     0.814750000000     0.963050000000     0          
T        Si     0.218900000000     0.781100000000     0.811600000000     0          
T        Si     0.218900000000     0.781100000000     0.886200000000     0          
O        O      0.435650000000     0.638550000000     0.597050000000     0          
O        O      0.472350000000     0.624250000000     0.543650000000     0          
O        O      0.410000000000     0.659750000000     0.540550000000     0          
O        O      0.410400000000     0.589600000000     0.555650000000     0          
O        O      0.473100000000     0.624650000000     0.650250000000     0          
O        O      0.407800000000     0.654350000000     0.654400000000     0          
O        O      0.414200000000     0.585800000000     0.636150000000     0          
O        O      0.458450000000     0.869400000000     0.561500000000     0          
O        O      0.475350000000     0.880800000000     0.500000000000     0          
O        O      0.484100000000     0.933150000000     0.543100000000     0          
O        O      0.413600000000     0.913600000000     0.592950000000     0          
O        O      0.460550000000     0.872350000000     0.625200000000     0          
O        O      0.483350000000     0.932500000000     0.654250000000     0          
O        O      0.469550000000     0.873050000000     0.688550000000     0          
O        O      0.459350000000     0.959350000000     0.598900000000     0          
O        O      0.411750000000     0.911750000000     0.704350000000     0          
O        O      0.449700000000     0.878600000000     0.750000000000     0          
T        Si     0.432050000000     0.627800000000     0.559200000000     0          
T        Si     0.432800000000     0.625750000000     0.634450000000     0          
T        Si     0.486450000000     0.889600000000     0.537100000000     0          
T        Si     0.434200000000     0.874600000000     0.593850000000     0          
T        Si     0.485050000000     0.888400000000     0.654500000000     0          
T        Si     0.435250000000     0.875750000000     0.713050000000     0          
T        Si     0.468900000000     0.968900000000     0.561600000000     0          
T        Si     0.468900000000     0.968900000000     0.636200000000     0          
O        O      0.111450000000     0.685650000000     0.847050000000     0          
O        O      0.125750000000     0.722350000000     0.793650000000     0          
O        O      0.090250000000     0.660000000000     0.790550000000     0          
O        O      0.160400000000     0.660400000000     0.805650000000     0          
O        O      0.125350000000     0.723100000000     0.900250000000     0          
O        O      0.095650000000     0.657800000000     0.904400000000     0          
O        O      0.164200000000     0.664200000000     0.886150000000     0          
O        O      0.380600000000     0.708450000000     0.811500000000     0          
O        O      0.369200000000     0.725350000000     0.750000000000     0          
O        O      0.316850000000     0.734100000000     0.793100000000     0          
O        O      0.336400000000     0.663600000000     0.842950000000     0          
O        O      0.377650000000     0.710550000000     0.875200000000     0          
O        O      0.317500000000     0.733350000000     0.904250000000     0          
O        O      0.376950000000     0.719550000000     0.938550000000     0          
O        O      0.290650000000     0.709350000000     0.848900000000     0          
O        O      0.338250000000     0.661750000000     0.954350000000     0          
O        O      0.371400000000     0.699700000000     0.500000000000     0          
T        Si     0.122200000000     0.682050000000     0.809200000000     0          
T        Si     0.124250000000     0.682800000000     0.884450000000     0          
T        Si     0.360400000000     0.736450000000     0.787100000000     0          
T        Si     0.375400000000     0.684200000000     0.843850000000     0          
T        Si     0.361600000000     0.735050000000     0.904500000000     0          
T        Si     0.374250000000     0.685250000000     0.963050000000     0          
T        Si     0.281100000000     0.718900000000     0.811600000000     0          
T        Si     0.281100000000     0.718900000000     0.886200000000     0          
O        O      0.314350000000     0.888550000000     0.652950000000     0          
O        O      0.277650000000     0.874250000000     0.706350000000     0          
O        O      0.340000000000     0.909750000000     0.709450000000     0          
O        O      0.339600000000     0.839600000000     0.694350000000     0          
O        O      0.276900000000     0.874650000000     0.599750000000     0          
O        O      0.342200000000     0.904350000000     0.595600000000     0          
O        O      0.335800000000     0.835800000000     0.613850000000     0          
O        O      0.291550000000     0.619400000000     0.688500000000     0          
O        O      0.274650000000     0.630800000000     0.750000000000     0          
O        O      0.265900000000     0.683150000000     0.706900000000     0          
O        O      0.336400000000     0.663600000000     0.657050000000     0          
O        O      0.289450000000     0.622350000000     0.624800000000     0          
O        O      0.266650000000     0.682500000000     0.595750000000     0          
O        O      0.280450000000     0.623050000000     0.561450000000     0          
O        O      0.250000000000     0.750000000000     0.689500000000     0          
O        O      0.290650000000     0.709350000000     0.651100000000     0          
O        O      0.250000000000     0.750000000000     0.612300000000     0          
O        O      0.338250000000     0.661750000000     0.545650000000     0          
O        O      0.300300000000     0.628600000000     0.500000000000     0          
T        Si     0.317950000000     0.877800000000     0.690800000000     0          
T        Si     0.317200000000     0.875750000000     0.615550000000     0          
T        Si     0.263550000000     0.639600000000     0.712900000000     0          
T        Si     0.315800000000     0.624600000000     0.656150000000     0          
T        Si     0.264950000000     0.638400000000     0.595500000000     0          
T        Si     0.314750000000     0.625750000000     0.536950000000     0          
T        Si     0.281100000000     0.718900000000     0.688400000000     0          
T        Si     0.281100000000     0.718900000000     0.613800000000     0          
O        O      0.361450000000     0.564350000000     0.902950000000     0          
O        O      0.375750000000     0.527650000000     0.956350000000     0          
O        O      0.340250000000     0.590000000000     0.959450000000     0          
O        O      0.410400000000     0.589600000000     0.944350000000     0          
O        O      0.375350000000     0.526900000000     0.849750000000     0          
O        O      0.345650000000     0.592200000000     0.845600000000     0          
O        O      0.414200000000     0.585800000000     0.863850000000     0          
O        O      0.130600000000     0.541550000000     0.938500000000     0          
O        O      0.119200000000     0.524650000000     0.500000000000     0          
O        O      0.066850000000     0.515900000000     0.956900000000     0          
O        O      0.086400000000     0.586400000000     0.907050000000     0          
O        O      0.127650000000     0.539450000000     0.874800000000     0          
O        O      0.067500000000     0.516650000000     0.845750000000     0          
O        O      0.126950000000     0.530450000000     0.811450000000     0          
O        O      0.000000000000     0.500000000000     0.939500000000     0          
O        O      0.040650000000     0.540650000000     0.901100000000     0          
O        O      0.000000000000     0.500000000000     0.862300000000     0          
O        O      0.088250000000     0.588250000000     0.795650000000     0          
O        O      0.121400000000     0.550300000000     0.750000000000     0          
T        Si     0.372200000000     0.567950000000     0.940800000000     0          
T        Si     0.374250000000     0.567200000000     0.865550000000     0          
T        Si     0.110400000000     0.513550000000     0.962900000000     0          
T        Si     0.125400000000     0.565800000000     0.906150000000     0          
T        Si     0.111600000000     0.514950000000     0.845500000000     0          
T        Si     0.124250000000     0.564750000000     0.786950000000     0          
T        Si     0.031100000000     0.531100000000     0.938400000000     0          
T        Si     0.031100000000     0.531100000000     0.863800000000     0          
O        O      0.185650000000     0.611450000000     0.652950000000     0          
O        O      0.222350000000     0.625750000000     0.706350000000     0          
O        O      0.160000000000     0.590250000000     0.709450000000     0          
O        O      0.160400000000     0.660400000000     0.694350000000     0          
O        O      0.223100000000     0.625350000000     0.599750000000     0          
O        O      0.157800000000     0.595650000000     0.595600000000     0          
O        O      0.164200000000     0.664200000000     0.613850000000     0          
O        O      0.208450000000     0.880600000000     0.688500000000     0          
O        O      0.225350000000     0.869200000000     0.750000000000     0          
O        O      0.234100000000     0.816850000000     0.706900000000     0          
O        O      0.163600000000     0.836400000000     0.657050000000     0          
O        O      0.210550000000     0.877650000000     0.624800000000     0          
O        O      0.233350000000     0.817500000000     0.595750000000     0          
O        O      0.219550000000     0.876950000000     0.561450000000     0          
O        O      0.209350000000     0.790650000000     0.651100000000     0          
O        O      0.161750000000     0.838250000000     0.545650000000     0          
O        O      0.199700000000     0.871400000000     0.500000000000     0          
T        Si     0.182050000000     0.622200000000     0.690800000000     0          
T        Si     0.182800000000     0.624250000000     0.615550000000     0          
T        Si     0.236450000000     0.860400000000     0.712900000000     0          
T        Si     0.184200000000     0.875400000000     0.656150000000     0          
T        Si     0.235050000000     0.861600000000     0.595500000000     0          
T        Si     0.185250000000     0.874250000000     0.536950000000     0          
T        Si     0.218900000000     0.781100000000     0.688400000000     0          
T        Si     0.218900000000     0.781100000000     0.613800000000     0          
O        O      0.138550000000     0.935650000000     0.902950000000     0          
O        O      0.124250000000     0.972350000000     0.956350000000     0          
O        O      0.159750000000     0.910000000000     0.959450000000     0          
O        O      0.089600000000     0.910400000000     0.944350000000     0          
O        O      0.124650000000     0.973100000000     0.849750000000     0          
O        O      0.154350000000     0.907800000000     0.845600000000     0          
O        O      0.085800000000     0.914200000000     0.863850000000     0          
O        O      0.369400000000     0.958450000000     0.938500000000     0          
O        O      0.380800000000     0.975350000000     0.500000000000     0          
O        O      0.433150000000     0.984100000000     0.956900000000     0          
O        O      0.413600000000     0.913600000000     0.907050000000     0          
O        O      0.372350000000     0.960550000000     0.874800000000     0          
O        O      0.432500000000     0.983350000000     0.845750000000     0          
O        O      0.373050000000     0.969550000000     0.811450000000     0          
O        O      0.459350000000     0.959350000000     0.901100000000     0          
O        O      0.411750000000     0.911750000000     0.795650000000     0          
O        O      0.378600000000     0.949700000000     0.750000000000     0          
T        Si     0.127800000000     0.932050000000     0.940800000000     0          
T        Si     0.125750000000     0.932800000000     0.865550000000     0          
T        Si     0.389600000000     0.986450000000     0.962900000000     0          
T        Si     0.374600000000     0.934200000000     0.906150000000     0          
T        Si     0.388400000000     0.985050000000     0.845500000000     0          
T        Si     0.375750000000     0.935250000000     0.786950000000     0          
T        Si     0.468900000000     0.968900000000     0.938400000000     0          
T        Si     0.468900000000     0.968900000000     0.863800000000     0          
O        O      0.435650000000     0.638550000000     0.902950000000     0          
O        O      0.472350000000     0.624250000000     0.956350000000     0          
O        O      0.410000000000     0.659750000000     0.959450000000     0          
O        O      0.473100000000     0.624650000000     0.849750000000     0          
O        O      0.407800000000     0.654350000000     0.845600000000     0          
O        O      0.458450000000     0.869400000000     0.938500000000     0          
O        O      0.484100000000     0.933150000000     0.956900000000     0          
O        O      0.460550000000     0.872350000000     0.874800000000     0          
O        O      0.483350000000     0.932500000000     0.845750000000     0          
O        O      0.469550000000     0.873050000000     0.811450000000     0          
T        Si     0.432050000000     0.627800000000     0.940800000000     0          
T        Si     0.432800000000     0.625750000000     0.865550000000     0          
T        Si     0.486450000000     0.889600000000     0.962900000000     0          
T        Si     0.434200000000     0.874600000000     0.906150000000     0          
T        Si     0.485050000000     0.888400000000     0.845500000000     0          
T        Si     0.435250000000     0.875750000000     0.786950000000     0          
O        O      0.111450000000     0.685650000000     0.652950000000     0          
O        O      0.125750000000     0.722350000000     0.706350000000     0          
O        O      0.090250000000     0.660000000000     0.709450000000     0          
O        O      0.125350000000     0.723100000000     0.599750000000     0          
O        O      0.095650000000     0.657800000000     0.595600000000     0          
O        O      0.380600000000     0.708450000000     0.688500000000     0          
O        O      0.316850000000     0.734100000000     0.706900000000     0          
O        O      0.377650000000     0.710550000000     0.624800000000     0          
O        O      0.317500000000     0.733350000000     0.595750000000     0          
O        O      0.376950000000     0.719550000000     0.561450000000     0          
T        Si     0.122200000000     0.682050000000     0.690800000000     0          
T        Si     0.124250000000     0.682800000000     0.615550000000     0          
T        Si     0.360400000000     0.736450000000     0.712900000000     0          
T        Si     0.375400000000     0.684200000000     0.656150000000     0          
T        Si     0.361600000000     0.735050000000     0.595500000000     0          
T        Si     0.374250000000     0.685250000000     0.536950000000     0          
O        O      0.064350000000     0.861450000000     0.902950000000     0          
O        O      0.027650000000     0.875750000000     0.956350000000     0          
O        O      0.090000000000     0.840250000000     0.959450000000     0          
O        O      0.026900000000     0.875350000000     0.849750000000     0          
O        O      0.092200000000     0.845650000000     0.845600000000     0          
O        O      0.041550000000     0.630600000000     0.938500000000     0          
O        O      0.015900000000     0.566850000000     0.956900000000     0          
O        O      0.039450000000     0.627650000000     0.874800000000     0          
O        O      0.016650000000     0.567500000000     0.845750000000     0          
O        O      0.030450000000     0.626950000000     0.811450000000     0          
T        Si     0.067950000000     0.872200000000     0.940800000000     0          
T        Si     0.067200000000     0.874250000000     0.865550000000     0          
T        Si     0.013550000000     0.610400000000     0.962900000000     0          
T        Si     0.065800000000     0.625400000000     0.906150000000     0          
T        Si     0.014950000000     0.611600000000     0.845500000000     0          
T        Si     0.064750000000     0.624250000000     0.786950000000     0          
O        O      0.388550000000     0.814350000000     0.652950000000     0          
O        O      0.374250000000     0.777650000000     0.706350000000     0          
O        O      0.409750000000     0.840000000000     0.709450000000     0          
O        O      0.374650000000     0.776900000000     0.599750000000     0          
O        O      0.404350000000     0.842200000000     0.595600000000     0          
O        O      0.119400000000     0.791550000000     0.688500000000     0          
O        O      0.183150000000     0.765900000000     0.706900000000     0          
O        O      0.122350000000     0.789450000000     0.624800000000     0          
O        O      0.182500000000     0.766650000000     0.595750000000     0          
O        O      0.123050000000     0.780450000000     0.561450000000     0          
T        Si     0.377800000000     0.817950000000     0.690800000000     0          
T        Si     0.375750000000     0.817200000000     0.615550000000     0          
T        Si     0.139600000000     0.763550000000     0.712900000000     0          
T        Si     0.124600000000     0.815800000000     0.656150000000     0          
T        Si     0.138400000000     0.764950000000     0.595500000000     0          
T        Si     0.125750000000     0.814750000000     0.536950000000     0          
O        O      0.185650000000     0.611450000000     0.847050000000     0          
O        O      0.222350000000     0.625750000000     0.793650000000     0          
O        O      0.160000000000     0.590250000000     0.790550000000     0          
O        O      0.223100000000     0.625350000000     0.900250000000     0          
O        O      0.157800000000     0.595650000000     0.904400000000     0          
O        O      0.208450000000     0.880600000000     0.811500000000     0          
O        O      0.234100000000     0.816850000000     0.793100000000     0          
O        O      0.210550000000     0.877650000000     0.875200000000     0          
O        O      0.233350000000     0.817500000000     0.904250000000     0          
O        O      0.219550000000     0.876950000000     0.938550000000     0          
T        Si     0.182050000000     0.622200000000     0.809200000000     0          
T        Si     0.182800000000     0.624250000000     0.884450000000     0          
T        Si     0.236450000000     0.860400000000     0.787100000000     0          
T        Si     0.184200000000     0.875400000000     0.843850000000     0          
T        Si     0.235050000000     0.861600000000     0.904500000000     0          
T        Si     0.185250000000     0.874250000000     0.963050000000     0          
O        O      0.138550000000     0.935650000000     0.597050000000     0          
O        O      0.124250000000     0.972350000000     0.543650000000     0          
O        O      0.159750000000     0.910000000000     0.540550000000     0          
O        O      0.124650000000     0.973100000000     0.650250000000     0          
O        O      0.154350000000     0.907800000000     0.654400000000     0          
O        O      0.369400000000     0.958450000000     0.561500000000     0          
O        O      0.433150000000     0.984100000000     0.543100000000     0          
O        O      0.372350000000     0.960550000000     0.625200000000     0          
O        O      0.432500000000     0.983350000000     0.654250000000     0          
O        O      0.373050000000     0.969550000000     0.688550000000     0          
T        Si     0.127800000000     0.932050000000     0.559200000000     0          
T        Si     0.125750000000     0.932800000000     0.634450000000     0          
T        Si     0.389600000000     0.986450000000     0.537100000000     0          
T        Si     0.374600000000     0.934200000000     0.593850000000     0          
T        Si     0.388400000000     0.985050000000     0.654500000000     0          
T        Si     0.375750000000     0.935250000000     0.713050000000     0          
O        O      0.314350000000     0.888550000000     0.847050000000     0          
O        O      0.277650000000     0.874250000000     0.793650000000     0          
O        O      0.340000000000     0.909750000000     0.790550000000     0          
O        O      0.276900000000     0.874650000000     0.900250000000     0          
O        O      0.342200000000     0.904350000000     0.904400000000     0          
O        O      0.291550000000     0.619400000000     0.811500000000     0          
O        O      0.265900000000     0.683150000000     0.793100000000     0          
O        O      0.289450000000     0.622350000000     0.875200000000     0          
O        O      0.266650000000     0.682500000000     0.904250000000     0          
O        O      0.280450000000     0.623050000000     0.938550000000     0          
T        Si     0.317950000000     0.877800000000     0.809200000000     0          
T        Si     0.317200000000     0.875750000000     0.884450000000     0          
T        Si     0.263550000000     0.639600000000     0.787100000000     0          
T        Si     0.315800000000     0.624600000000     0.843850000000     0          
T        Si     0.264950000000     0.638400000000     0.904500000000     0          
T        Si     0.314750000000     0.625750000000     0.963050000000     0          
O        O      0.361450000000     0.564350000000     0.597050000000     0          
O        O      0.375750000000     0.527650000000     0.543650000000     0          
O        O      0.340250000000     0.590000000000     0.540550000000     0          
O        O      0.375350000000     0.526900000000     0.650250000000     0          
O        O      0.345650000000     0.592200000000     0.654400000000     0          
O        O      0.130600000000     0.541550000000     0.561500000000     0          
O        O      0.066850000000     0.515900000000     0.543100000000     0          
O        O      0.127650000000     0.539450000000     0.625200000000     0          
O        O      0.067500000000     0.516650000000     0.654250000000     0          
O        O      0.126950000000     0.530450000000     0.688550000000     0          
T        Si     0.372200000000     0.567950000000     0.559200000000     0          
T        Si     0.374250000000     0.567200000000     0.634450000000     0          
T        Si     0.110400000000     0.513550000000     0.537100000000     0          
T        Si     0.125400000000     0.565800000000     0.593850000000     0          
T        Si     0.111600000000     0.514950000000     0.654500000000     0          
T        Si     0.124250000000     0.564750000000     0.713050000000     0          
O        O      0.564350000000     0.361450000000     0.097050000000     0          
O        O      0.527650000000     0.375750000000     0.043650000000     0          
O        O      0.590000000000     0.340250000000     0.040550000000     0          
O        O      0.589600000000     0.410400000000     0.055650000000     0          
O        O      0.526900000000     0.375350000000     0.150250000000     0          
O        O      0.592200000000     0.345650000000     0.154400000000     0          
O        O      0.585800000000     0.414200000000     0.136150000000     0          
O        O      0.541550000000     0.130600000000     0.061500000000     0          
O        O      0.524650000000     0.119200000000     0.000000000000     0          
O        O      0.515900000000     0.066850000000     0.043100000000     0          
O        O      0.586400000000     0.086400000000     0.092950000000     0          
O        O      0.539450000000     0.127650000000     0.125200000000     0          
O        O      0.516650000000     0.067500000000     0.154250000000     0          
O        O      0.530450000000     0.126950000000     0.188550000000     0          
O        O      0.500000000000     0.000000000000     0.060500000000     0          
O        O      0.540650000000     0.040650000000     0.098900000000     0          
O        O      0.500000000000     0.000000000000     0.137700000000     0          
O        O      0.588250000000     0.088250000000     0.204350000000     0          
O        O      0.550300000000     0.121400000000     0.250000000000     0          
T        Si     0.567950000000     0.372200000000     0.059200000000     0          
T        Si     0.567200000000     0.374250000000     0.134450000000     0          
T        Si     0.513550000000     0.110400000000     0.037100000000     0          
T        Si     0.565800000000     0.125400000000     0.093850000000     0          
T        Si     0.514950000000     0.111600000000     0.154500000000     0          
T        Si     0.564750000000     0.124250000000     0.213050000000     0          
T        Si     0.531100000000     0.031100000000     0.061600000000     0          
T        Si     0.531100000000     0.031100000000     0.136200000000     0          
O        O      0.888550000000     0.314350000000     0.347050000000     0          
O        O      0.874250000000     0.277650000000     0.293650000000     0          
O        O      0.909750000000     0.340000000000     0.290550000000     0          
O        O      0.839600000000     0.339600000000     0.305650000000     0          
O        O      0.874650000000     0.276900000000     0.400250000000     0          
O        O      0.904350000000     0.342200000000     0.404400000000     0          
O        O      0.835800000000     0.335800000000     0.386150000000     0          
O        O      0.619400000000     0.291550000000     0.311500000000     0          
O        O      0.630800000000     0.274650000000     0.250000000000     0          
O        O      0.683150000000     0.265900000000     0.293100000000     0          
O        O      0.663600000000     0.336400000000     0.342950000000     0          
O        O      0.622350000000     0.289450000000     0.375200000000     0          
O        O      0.682500000000     0.266650000000     0.404250000000     0          
O        O      0.623050000000     0.280450000000     0.438550000000     0          
O        O      0.750000000000     0.250000000000     0.310500000000     0          
O        O      0.709350000000     0.290650000000     0.348900000000     0          
O        O      0.750000000000     0.250000000000     0.387700000000     0          
O        O      0.661750000000     0.338250000000     0.454350000000     0          
O        O      0.628600000000     0.300300000000     0.000000000000     0          
T        Si     0.877800000000     0.317950000000     0.309200000000     0          
T        Si     0.875750000000     0.317200000000     0.384450000000     0          
T        Si     0.639600000000     0.263550000000     0.287100000000     0          
T        Si     0.624600000000     0.315800000000     0.343850000000     0          
T        Si     0.638400000000     0.264950000000     0.404500000000     0          
T        Si     0.625750000000     0.314750000000     0.463050000000     0          
T        Si     0.718900000000     0.281100000000     0.311600000000     0          
T        Si     0.718900000000     0.281100000000     0.386200000000     0          
O        O      0.935650000000     0.138550000000     0.097050000000     0          
O        O      0.972350000000     0.124250000000     0.043650000000     0          
O        O      0.910000000000     0.159750000000     0.040550000000     0          
O        O      0.910400000000     0.089600000000     0.055650000000     0          
O        O      0.973100000000     0.124650000000     0.150250000000     0          
O        O      0.907800000000     0.154350000000     0.154400000000     0          
O        O      0.914200000000     0.085800000000     0.136150000000     0          
O        O      0.958450000000     0.369400000000     0.061500000000     0          
O        O      0.975350000000     0.380800000000     0.000000000000     0          
O        O      0.984100000000     0.433150000000     0.043100000000     0          
O        O      0.913600000000     0.413600000000     0.092950000000     0          
O        O      0.960550000000     0.372350000000     0.125200000000     0          
O        O      0.983350000000     0.432500000000     0.154250000000     0          
O        O      0.969550000000     0.373050000000     0.188550000000     0          
O        O      0.959350000000     0.459350000000     0.098900000000     0          
O        O      0.911750000000     0.411750000000     0.204350000000     0          
O        O      0.949700000000     0.378600000000     0.250000000000     0          
T        Si     0.932050000000     0.127800000000     0.059200000000     0          
T        Si     0.932800000000     0.125750000000     0.134450000000     0          
T        Si     0.986450000000     0.389600000000     0.037100000000     0          
T        Si     0.934200000000     0.374600000000     0.093850000000     0          
T        Si     0.985050000000     0.388400000000     0.154500000000     0          
T        Si     0.935250000000     0.375750000000     0.213050000000     0          
T        Si     0.968900000000     0.468900000000     0.061600000000     0          
T        Si     0.968900000000     0.468900000000     0.136200000000     0          
O        O      0.611450000000     0.185650000000     0.347050000000     0          
O        O      0.625750000000     0.222350000000     0.293650000000     0          
O        O      0.590250000000     0.160000000000     0.290550000000     0          
O        O      0.660400000000     0.160400000000     0.305650000000     0          
O        O      0.625350000000     0.223100000000     0.400250000000     0          
O        O      0.595650000000     0.157800000000     0.404400000000     0          
O        O      0.664200000000     0.164200000000     0.386150000000     0          
O        O      0.880600000000     0.208450000000     0.311500000000     0          
O        O      0.869200000000     0.225350000000     0.250000000000     0          
O        O      0.816850000000     0.234100000000     0.293100000000     0          
O        O      0.836400000000     0.163600000000     0.342950000000     0          
O        O      0.877650000000     0.210550000000     0.375200000000     0          
O        O      0.817500000000     0.233350000000     0.404250000000     0          
O        O      0.876950000000     0.219550000000     0.438550000000     0          
O        O      0.790650000000     0.209350000000     0.348900000000     0          
O        O      0.838250000000     0.161750000000     0.454350000000     0          
O        O      0.871400000000     0.199700000000     0.000000000000     0          
T        Si     0.622200000000     0.182050000000     0.309200000000     0          
T        Si     0.624250000000     0.182800000000     0.384450000000     0          
T        Si     0.860400000000     0.236450000000     0.287100000000     0          
T        Si     0.875400000000     0.184200000000     0.343850000000     0          
T        Si     0.861600000000     0.235050000000     0.404500000000     0          
T        Si     0.874250000000     0.185250000000     0.463050000000     0          
T        Si     0.781100000000     0.218900000000     0.311600000000     0          
T        Si     0.781100000000     0.218900000000     0.386200000000     0          
O        O      0.814350000000     0.388550000000     0.152950000000     0          
O        O      0.777650000000     0.374250000000     0.206350000000     0          
O        O      0.840000000000     0.409750000000     0.209450000000     0          
O        O      0.839600000000     0.339600000000     0.194350000000     0          
O        O      0.776900000000     0.374650000000     0.099750000000     0          
O        O      0.842200000000     0.404350000000     0.095600000000     0          
O        O      0.835800000000     0.335800000000     0.113850000000     0          
O        O      0.791550000000     0.119400000000     0.188500000000     0          
O        O      0.774650000000     0.130800000000     0.250000000000     0          
O        O      0.765900000000     0.183150000000     0.206900000000     0          
O        O      0.836400000000     0.163600000000     0.157050000000     0          
O        O      0.789450000000     0.122350000000     0.124800000000     0          
O        O      0.766650000000     0.182500000000     0.095750000000     0          
O        O      0.780450000000     0.123050000000     0.061450000000     0          
O        O      0.750000000000     0.250000000000     0.189500000000     0          
O        O      0.790650000000     0.209350000000     0.151100000000     0          
O        O      0.750000000000     0.250000000000     0.112300000000     0          
O        O      0.838250000000     0.161750000000     0.045650000000     0          
O        O      0.800300000000     0.128600000000     0.000000000000     0          
T        Si     0.817950000000     0.377800000000     0.190800000000     0          
T        Si     0.817200000000     0.375750000000     0.115550000000     0          
T        Si     0.763550000000     0.139600000000     0.212900000000     0          
T        Si     0.815800000000     0.124600000000     0.156150000000     0          
T        Si     0.764950000000     0.138400000000     0.095500000000     0          
T        Si     0.814750000000     0.125750000000     0.036950000000     0          
T        Si     0.781100000000     0.218900000000     0.188400000000     0          
T        Si     0.781100000000     0.218900000000     0.113800000000     0          
O        O      0.861450000000     0.064350000000     0.402950000000     0          
O        O      0.875750000000     0.027650000000     0.456350000000     0          
O        O      0.840250000000     0.090000000000     0.459450000000     0          
O        O      0.910400000000     0.089600000000     0.444350000000     0          
O        O      0.875350000000     0.026900000000     0.349750000000     0          
O        O      0.845650000000     0.092200000000     0.345600000000     0          
O        O      0.914200000000     0.085800000000     0.363850000000     0          
O        O      0.630600000000     0.041550000000     0.438500000000     0          
O        O      0.619200000000     0.024650000000     0.000000000000     0          
O        O      0.566850000000     0.015900000000     0.456900000000     0          
O        O      0.586400000000     0.086400000000     0.407050000000     0          
O        O      0.627650000000     0.039450000000     0.374800000000     0          
O        O      0.567500000000     0.016650000000     0.345750000000     0          
O        O      0.626950000000     0.030450000000     0.311450000000     0          
O        O      0.500000000000     0.000000000000     0.439500000000     0          
O        O      0.540650000000     0.040650000000     0.401100000000     0          
O        O      0.500000000000     0.000000000000     0.362300000000     0          
O        O      0.588250000000     0.088250000000     0.295650000000     0          
O        O      0.621400000000     0.050300000000     0.250000000000     0          
T        Si     0.872200000000     0.067950000000     0.440800000000     0          
T        Si     0.874250000000     0.067200000000     0.365550000000     0          
T        Si     0.610400000000     0.013550000000     0.462900000000     0          
T        Si     0.625400000000     0.065800000000     0.406150000000     0          
T        Si     0.611600000000     0.014950000000     0.345500000000     0          
T        Si     0.624250000000     0.064750000000     0.286950000000     0          
T        Si     0.531100000000     0.031100000000     0.438400000000     0          
T        Si     0.531100000000     0.031100000000     0.363800000000     0          
O        O      0.685650000000     0.111450000000     0.152950000000     0          
O        O      0.722350000000     0.125750000000     0.206350000000     0          
O        O      0.660000000000     0.090250000000     0.209450000000     0          
O        O      0.660400000000     0.160400000000     0.194350000000     0          
O        O      0.723100000000     0.125350000000     0.099750000000     0          
O        O      0.657800000000     0.095650000000     0.095600000000     0          
O        O      0.664200000000     0.164200000000     0.113850000000     0          
O        O      0.708450000000     0.380600000000     0.188500000000     0          
O        O      0.725350000000     0.369200000000     0.250000000000     0          
O        O      0.734100000000     0.316850000000     0.206900000000     0          
O        O      0.663600000000     0.336400000000     0.157050000000     0          
O        O      0.710550000000     0.377650000000     0.124800000000     0          
O        O      0.733350000000     0.317500000000     0.095750000000     0          
O        O      0.719550000000     0.376950000000     0.061450000000     0          
O        O      0.709350000000     0.290650000000     0.151100000000     0          
O        O      0.661750000000     0.338250000000     0.045650000000     0          
O        O      0.699700000000     0.371400000000     0.000000000000     0          
T        Si     0.682050000000     0.122200000000     0.190800000000     0          
T        Si     0.682800000000     0.124250000000     0.115550000000     0          
T        Si     0.736450000000     0.360400000000     0.212900000000     0          
T        Si     0.684200000000     0.375400000000     0.156150000000     0          
T        Si     0.735050000000     0.361600000000     0.095500000000     0          
T        Si     0.685250000000     0.374250000000     0.036950000000     0          
T        Si     0.718900000000     0.281100000000     0.188400000000     0          
T        Si     0.718900000000     0.281100000000     0.113800000000     0          
O        O      0.638550000000     0.435650000000     0.402950000000     0          
O        O      0.624250000000     0.472350000000     0.456350000000     0          
O        O      0.659750000000     0.410000000000     0.459450000000     0          
O        O      0.589600000000     0.410400000000     0.444350000000     0          
O        O      0.624650000000     0.473100000000     0.349750000000     0          
O        O      0.654350000000     0.407800000000     0.345600000000     0          
O        O      0.585800000000     0.414200000000     0.363850000000     0          
O        O      0.869400000000     0.458450000000     0.438500000000     0          
O        O      0.880800000000     0.475350000000     0.000000000000     0          
O        O      0.933150000000     0.484100000000     0.456900000000     0          
O        O      0.913600000000     0.413600000000     0.407050000000     0          
O        O      0.872350000000     0.460550000000     0.374800000000     0          
O        O      0.932500000000     0.483350000000     0.345750000000     0          
O        O      0.873050000000     0.469550000000     0.311450000000     0          
O        O      0.959350000000     0.459350000000     0.401100000000     0          
O        O      0.911750000000     0.411750000000     0.295650000000     0          
O        O      0.878600000000     0.449700000000     0.250000000000     0          
T        Si     0.627800000000     0.432050000000     0.440800000000     0          
T        Si     0.625750000000     0.432800000000     0.365550000000     0          
T        Si     0.889600000000     0.486450000000     0.462900000000     0          
T        Si     0.874600000000     0.434200000000     0.406150000000     0          
T        Si     0.888400000000     0.485050000000     0.345500000000     0          
T        Si     0.875750000000     0.435250000000     0.286950000000     0          
T        Si     0.968900000000     0.468900000000     0.438400000000     0          
T        Si     0.968900000000     0.468900000000     0.363800000000     0          
O        O      0.935650000000     0.138550000000     0.402950000000     0          
O        O      0.972350000000     0.124250000000     0.456350000000     0          
O        O      0.910000000000     0.159750000000     0.459450000000     0          
O        O      0.973100000000     0.124650000000     0.349750000000     0          
O        O      0.907800000000     0.154350000000     0.345600000000     0          
O        O      0.958450000000     0.369400000000     0.438500000000     0          
O        O      0.984100000000     0.433150000000     0.456900000000     0          
O        O      0.960550000000     0.372350000000     0.374800000000     0          
O        O      0.983350000000     0.432500000000     0.345750000000     0          
O        O      0.969550000000     0.373050000000     0.311450000000     0          
T        Si     0.932050000000     0.127800000000     0.440800000000     0          
T        Si     0.932800000000     0.125750000000     0.365550000000     0          
T        Si     0.986450000000     0.389600000000     0.462900000000     0          
T        Si     0.934200000000     0.374600000000     0.406150000000     0          
T        Si     0.985050000000     0.388400000000     0.345500000000     0          
T        Si     0.935250000000     0.375750000000     0.286950000000     0          
O        O      0.611450000000     0.185650000000     0.152950000000     0          
O        O      0.625750000000     0.222350000000     0.206350000000     0          
O        O      0.590250000000     0.160000000000     0.209450000000     0          
O        O      0.625350000000     0.223100000000     0.099750000000     0          
O        O      0.595650000000     0.157800000000     0.095600000000     0          
O        O      0.880600000000     0.208450000000     0.188500000000     0          
O        O      0.816850000000     0.234100000000     0.206900000000     0          
O        O      0.877650000000     0.210550000000     0.124800000000     0          
O        O      0.817500000000     0.233350000000     0.095750000000     0          
O        O      0.876950000000     0.219550000000     0.061450000000     0          
T        Si     0.622200000000     0.182050000000     0.190800000000     0          
T        Si     0.624250000000     0.182800000000     0.115550000000     0          
T        Si     0.860400000000     0.236450000000     0.212900000000     0          
T        Si     0.875400000000     0.184200000000     0.156150000000     0          
T        Si     0.861600000000     0.235050000000     0.095500000000     0          
T        Si     0.874250000000     0.185250000000     0.036950000000     0          
O        O      0.564350000000     0.361450000000     0.402950000000     0          
O        O      0.527650000000     0.375750000000     0.456350000000     0          
O        O      0.590000000000     0.340250000000     0.459450000000     0          
O        O      0.526900000000     0.375350000000     0.349750000000     0          
O        O      0.592200000000     0.345650000000     0.345600000000     0          
O        O      0.541550000000     0.130600000000     0.438500000000     0          
O        O      0.515900000000     0.066850000000     0.456900000000     0          
O        O      0.539450000000     0.127650000000     0.374800000000     0          
O        O      0.516650000000     0.067500000000     0.345750000000     0          
O        O      0.530450000000     0.126950000000     0.311450000000     0          
T        Si     0.567950000000     0.372200000000     0.440800000000     0          
T        Si     0.567200000000     0.374250000000     0.365550000000     0          
T        Si     0.513550000000     0.110400000000     0.462900000000     0          
T        Si     0.565800000000     0.125400000000     0.406150000000     0          
T        Si     0.514950000000     0.111600000000     0.345500000000     0          
T        Si     0.564750000000     0.124250000000     0.286950000000     0          
O        O      0.888550000000     0.314350000000     0.152950000000     0          
O        O      0.874250000000     0.277650000000     0.206350000000     0          
O        O      0.909750000000     0.340000000000     0.209450000000     0          
O        O      0.874650000000     0.276900000000     0.099750000000     0          
O        O      0.904350000000     0.342200000000     0.095600000000     0          
O        O      0.619400000000     0.291550000000     0.188500000000     0          
O        O      0.683150000000     0.265900000000     0.206900000000     0          
O        O      0.622350000000     0.289450000000     0.124800000000     0          
O        O      0.682500000000     0.266650000000     0.095750000000     0          
O        O      0.623050000000     0.280450000000     0.061450000000     0          
T        Si     0.877800000000     0.317950000000     0.190800000000     0          
T        Si     0.875750000000     0.317200000000     0.115550000000     0          
T        Si     0.639600000000     0.263550000000     0.212900000000     0          
T        Si     0.624600000000     0.315800000000     0.156150000000     0          
T        Si     0.638400000000     0.264950000000     0.095500000000     0          
T        Si     0.625750000000     0.314750000000     0.036950000000     0          
O        O      0.685650000000     0.111450000000     0.347050000000     0          
O        O      0.722350000000     0.125750000000     0.293650000000     0          
O        O      0.660000000000     0.090250000000     0.290550000000     0          
O        O      0.723100000000     0.125350000000     0.400250000000     0          
O        O      0.657800000000     0.095650000000     0.404400000000     0          
O        O      0.708450000000     0.380600000000     0.311500000000     0          
O        O      0.734100000000     0.316850000000     0.293100000000     0          
O        O      0.710550000000     0.377650000000     0.375200000000     0          
O        O      0.733350000000     0.317500000000     0.404250000000     0          
O        O      0.719550000000     0.376950000000     0.438550000000     0          
T        Si     0.682050000000     0.122200000000     0.309200000000     0          
T        Si     0.682800000000     0.124250000000     0.384450000000     0          
T        Si     0.736450000000     0.360400000000     0.287100000000     0          
T        Si     0.684200000000     0.375400000000     0.343850000000     0          
T        Si     0.735050000000     0.361600000000     0.404500000000     0          
T        Si     0.685250000000     0.374250000000     0.463050000000     0          
O        O      0.638550000000     0.435650000000     0.097050000000     0          
O        O      0.624250000000     0.472350000000     0.043650000000     0          
O        O      0.659750000000     0.410000000000     0.040550000000     0          
O        O      0.624650000000     0.473100000000     0.150250000000     0          
O        O      0.654350000000     0.407800000000     0.154400000000     0          
O        O      0.869400000000     0.458450000000     0.061500000000     0          
O        O      0.933150000000     0.484100000000     0.043100000000     0          
O        O      0.872350000000     0.460550000000     0.125200000000     0          
O        O      0.932500000000     0.483350000000     0.154250000000     0          
O        O      0.873050000000     0.469550000000     0.188550000000     0          
T        Si     0.627800000000     0.432050000000     0.059200000000     0          
T        Si     0.625750000000     0.432800000000     0.134450000000     0          
T        Si     0.889600000000     0.486450000000     0.037100000000     0          
T        Si     0.874600000000     0.434200000000     0.093850000000     0          
T        Si     0.888400000000     0.485050000000     0.154500000000     0          
T        Si     0.875750000000     0.435250000000     0.213050000000     0          
O        O      0.814350000000     0.388550000000     0.347050000000     0          
O        O      0.777650000000     0.374250000000     0.293650000000     0          
O        O      0.840000000000     0.409750000000     0.290550000000     0          
O        O      0.776900000000     0.374650000000     0.400250000000     0          
O        O      0.842200000000     0.404350000000     0.404400000000     0          
O        O      0.791550000000     0.119400000000     0.311500000000     0          
O        O      0.765900000000     0.183150000000     0.293100000000     0          
O        O      0.789450000000     0.122350000000     0.375200000000     0          
O        O      0.766650000000     0.182500000000     0.404250000000     0          
O        O      0.780450000000     0.123050000000     0.438550000000     0          
T        Si     0.817950000000     0.377800000000     0.309200000000     0          
T        Si     0.817200000000     0.375750000000     0.384450000000     0          
T        Si     0.763550000000     0.139600000000     0.287100000000     0          
T        Si     0.815800000000     0.124600000000     0.343850000000     0          
T        Si     0.764950000000     0.138400000000     0.404500000000     0          
T        Si     0.814750000000     0.125750000000     0.463050000000     0          
O        O      0.861450000000     0.064350000000     0.097050000000     0          
O        O      0.875750000000     0.027650000000     0.043650000000     0          
O        O      0.840250000000     0.090000000000     0.040550000000     0          
O        O      0.875350000000     0.026900000000     0.150250000000     0          
O        O      0.845650000000     0.092200000000     0.154400000000     0          
O        O      0.630600000000     0.041550000000     0.061500000000     0          
O        O      0.566850000000     0.015900000000     0.043100000000     0          
O        O      0.627650000000     0.039450000000     0.125200000000     0          
O        O      0.567500000000     0.016650000000     0.154250000000     0          
O        O      0.626950000000     0.030450000000     0.188550000000     0          
T        Si     0.872200000000     0.067950000000     0.059200000000     0          
T        Si     0.874250000000     0.067200000000     0.134450000000     0          
T        Si     0.610400000000     0.013550000000     0.037100000000     0          
T        Si     0.625400000000     0.065800000000     0.093850000000     0          
T        Si     0.611600000000     0.014950000000     0.154500000000     0          
T        Si     0.624250000000     0.064750000000     0.213050000000     0          
O        O      0.564350000000     0.361450000000     0.597050000000     0          
O        O      0.527650000000     0.375750000000     0.543650000000     0          
O        O      0.590000000000     0.340250000000     0.540550000000     0          
O        O      0.589600000000     0.410400000000     0.555650000000     0          
O        O      0.526900000000     0.375350000000     0.650250000000     0          
O        O      0.592200000000     0.345650000000     0.654400000000     0          
O        O      0.585800000000     0.414200000000     0.636150000000     0          
O        O      0.541550000000     0.130600000000     0.561500000000     0          
O        O      0.524650000000     0.119200000000     0.500000000000     0          
O        O      0.515900000000     0.066850000000     0.543100000000     0          
O        O      0.586400000000     0.086400000000     0.592950000000     0          
O        O      0.539450000000     0.127650000000     0.625200000000     0          
O        O      0.516650000000     0.067500000000     0.654250000000     0          
O        O      0.530450000000     0.126950000000     0.688550000000     0          
O        O      0.500000000000     0.000000000000     0.560500000000     0          
O        O      0.540650000000     0.040650000000     0.598900000000     0          
O        O      0.500000000000     0.000000000000     0.637700000000     0          
O        O      0.588250000000     0.088250000000     0.704350000000     0          
O        O      0.550300000000     0.121400000000     0.750000000000     0          
T        Si     0.567950000000     0.372200000000     0.559200000000     0          
T        Si     0.567200000000     0.374250000000     0.634450000000     0          
T        Si     0.513550000000     0.110400000000     0.537100000000     0          
T        Si     0.565800000000     0.125400000000     0.593850000000     0          
T        Si     0.514950000000     0.111600000000     0.654500000000     0          
T        Si     0.564750000000     0.124250000000     0.713050000000     0          
T        Si     0.531100000000     0.031100000000     0.561600000000     0          
T        Si     0.531100000000     0.031100000000     0.636200000000     0          
O        O      0.888550000000     0.314350000000     0.847050000000     0          
O        O      0.874250000000     0.277650000000     0.793650000000     0          
O        O      0.909750000000     0.340000000000     0.790550000000     0          
O        O      0.839600000000     0.339600000000     0.805650000000     0          
O        O      0.874650000000     0.276900000000     0.900250000000     0          
O        O      0.904350000000     0.342200000000     0.904400000000     0          
O        O      0.835800000000     0.335800000000     0.886150000000     0          
O        O      0.619400000000     0.291550000000     0.811500000000     0          
O        O      0.630800000000     0.274650000000     0.750000000000     0          
O        O      0.683150000000     0.265900000000     0.793100000000     0          
O        O      0.663600000000     0.336400000000     0.842950000000     0          
O        O      0.622350000000     0.289450000000     0.875200000000     0          
O        O      0.682500000000     0.266650000000     0.904250000000     0          
O        O      0.623050000000     0.280450000000     0.938550000000     0          
O        O      0.750000000000     0.250000000000     0.810500000000     0          
O        O      0.709350000000     0.290650000000     0.848900000000     0          
O        O      0.750000000000     0.250000000000     0.887700000000     0          
O        O      0.661750000000     0.338250000000     0.954350000000     0          
O        O      0.628600000000     0.300300000000     0.500000000000     0          
T        Si     0.877800000000     0.317950000000     0.809200000000     0          
T        Si     0.875750000000     0.317200000000     0.884450000000     0          
T        Si     0.639600000000     0.263550000000     0.787100000000     0          
T        Si     0.624600000000     0.315800000000     0.843850000000     0          
T        Si     0.638400000000     0.264950000000     0.904500000000     0          
T        Si     0.625750000000     0.314750000000     0.963050000000     0          
T        Si     0.718900000000     0.281100000000     0.811600000000     0          
T        Si     0.718900000000     0.281100000000     0.886200000000     0          
O        O      0.935650000000     0.138550000000     0.597050000000     0          
O        O      0.972350000000     0.124250000000     0.543650000000     0          
O        O      0.910000000000     0.159750000000     0.540550000000     0          
O        O      0.910400000000     0.089600000000     0.555650000000     0          
O        O      0.973100000000     0.124650000000     0.650250000000     0          
O        O      0.907800000000     0.154350000000     0.654400000000     0          
O        O      0.914200000000     0.085800000000     0.636150000000     0          
O        O      0.958450000000     0.369400000000     0.561500000000     0          
O        O      0.975350000000     0.380800000000     0.500000000000     0          
O        O      0.984100000000     0.433150000000     0.543100000000     0          
O        O      0.913600000000     0.413600000000     0.592950000000     0          
O        O      0.960550000000     0.372350000000     0.625200000000     0          
O        O      0.983350000000     0.432500000000     0.654250000000     0          
O        O      0.969550000000     0.373050000000     0.688550000000     0          
O        O      0.959350000000     0.459350000000     0.598900000000     0          
O        O      0.911750000000     0.411750000000     0.704350000000     0          
O        O      0.949700000000     0.378600000000     0.750000000000     0          
T        Si     0.932050000000     0.127800000000     0.559200000000     0          
T        Si     0.932800000000     0.125750000000     0.634450000000     0          
T        Si     0.986450000000     0.389600000000     0.537100000000     0          
T        Si     0.934200000000     0.374600000000     0.593850000000     0          
T        Si     0.985050000000     0.388400000000     0.654500000000     0          
T        Si     0.935250000000     0.375750000000     0.713050000000     0          
T        Si     0.968900000000     0.468900000000     0.561600000000     0          
T        Si     0.968900000000     0.468900000000     0.636200000000     0          
O        O      0.611450000000     0.185650000000     0.847050000000     0          
O        O      0.625750000000     0.222350000000     0.793650000000     0          
O        O      0.590250000000     0.160000000000     0.790550000000     0          
O        O      0.660400000000     0.160400000000     0.805650000000     0          
O        O      0.625350000000     0.223100000000     0.900250000000     0          
O        O      0.595650000000     0.157800000000     0.904400000000     0          
O        O      0.664200000000     0.164200000000     0.886150000000     0          
O        O      0.880600000000     0.208450000000     0.811500000000     0          
O        O      0.869200000000     0.225350000000     0.750000000000     0          
O        O      0.816850000000     0.234100000000     0.793100000000     0          
O        O      0.836400000000     0.163600000000     0.842950000000     0          
O        O      0.877650000000     0.210550000000     0.875200000000     0          
O        O      0.817500000000     0.233350000000     0.904250000000     0          
O        O      0.876950000000     0.219550000000     0.938550000000     0          
O        O      0.790650000000     0.209350000000     0.848900000000     0          
O        O      0.838250000000     0.161750000000     0.954350000000     0          
O        O      0.871400000000     0.199700000000     0.500000000000     0          
T        Si     0.622200000000     0.182050000000     0.809200000000     0          
T        Si     0.624250000000     0.182800000000     0.884450000000     0          
T        Si     0.860400000000     0.236450000000     0.787100000000     0          
T        Si     0.875400000000     0.184200000000     0.843850000000     0          
T        Si     0.861600000000     0.235050000000     0.904500000000     0          
T        Si     0.874250000000     0.185250000000     0.963050000000     0          
T        Si     0.781100000000     0.218900000000     0.811600000000     0          
T        Si     0.781100000000     0.218900000000     0.886200000000     0          
O        O      0.814350000000     0.388550000000     0.652950000000     0          
O        O      0.777650000000     0.374250000000     0.706350000000     0          
O        O      0.840000000000     0.409750000000     0.709450000000     0          
O        O      0.839600000000     0.339600000000     0.694350000000     0          
O        O      0.776900000000     0.374650000000     0.599750000000     0          
O        O      0.842200000000     0.404350000000     0.595600000000     0          
O        O      0.835800000000     0.335800000000     0.613850000000     0          
O        O      0.791550000000     0.119400000000     0.688500000000     0          
O        O      0.774650000000     0.130800000000     0.750000000000     0          
O        O      0.765900000000     0.183150000000     0.706900000000     0          
O        O      0.836400000000     0.163600000000     0.657050000000     0          
O        O      0.789450000000     0.122350000000     0.624800000000     0          
O        O      0.766650000000     0.182500000000     0.595750000000     0          
O        O      0.780450000000     0.123050000000     0.561450000000     0          
O        O      0.750000000000     0.250000000000     0.689500000000     0          
O        O      0.790650000000     0.209350000000     0.651100000000     0          
O        O      0.750000000000     0.250000000000     0.612300000000     0          
O        O      0.838250000000     0.161750000000     0.545650000000     0          
O        O      0.800300000000     0.128600000000     0.500000000000     0          
T        Si     0.817950000000     0.377800000000     0.690800000000     0          
T        Si     0.817200000000     0.375750000000     0.615550000000     0          
T        Si     0.763550000000     0.139600000000     0.712900000000     0          
T        Si     0.815800000000     0.124600000000     0.656150000000     0          
T        Si     0.764950000000     0.138400000000     0.595500000000     0          
T        Si     0.814750000000     0.125750000000     0.536950000000     0          
T        Si     0.781100000000     0.218900000000     0.688400000000     0          
T        Si     0.781100000000     0.218900000000     0.613800000000     0          
O        O      0.861450000000     0.064350000000     0.902950000000     0          
O        O      0.875750000000     0.027650000000     0.956350000000     0          
O        O      0.840250000000     0.090000000000     0.959450000000     0          
O        O      0.910400000000     0.089600000000     0.944350000000     0          
O        O      0.875350000000     0.026900000000     0.849750000000     0          
O        O      0.845650000000     0.092200000000     0.845600000000     0          
O        O      0.914200000000     0.085800000000     0.863850000000     0          
O        O      0.630600000000     0.041550000000     0.938500000000     0          
O        O      0.619200000000     0.024650000000     0.500000000000     0          
O        O      0.566850000000     0.015900000000     0.956900000000     0          
O        O      0.586400000000     0.086400000000     0.907050000000     0          
O        O      0.627650000000     0.039450000000     0.874800000000     0          
O        O      0.567500000000     0.016650000000     0.845750000000     0          
O        O      0.626950000000     0.030450000000     0.811450000000     0          
O        O      0.500000000000     0.000000000000     0.939500000000     0          
O        O      0.540650000000     0.040650000000     0.901100000000     0          
O        O      0.500000000000     0.000000000000     0.862300000000     0          
O        O      0.588250000000     0.088250000000     0.795650000000     0          
O        O      0.621400000000     0.050300000000     0.750000000000     0          
T        Si     0.872200000000     0.067950000000     0.940800000000     0          
T        Si     0.874250000000     0.067200000000     0.865550000000     0          
T        Si     0.610400000000     0.013550000000     0.962900000000     0          
T        Si     0.625400000000     0.065800000000     0.906150000000     0          
T        Si     0.611600000000     0.014950000000     0.845500000000     0          
T        Si     0.624250000000     0.064750000000     0.786950000000     0          
T        Si     0.531100000000     0.031100000000     0.938400000000     0          
T        Si     0.531100000000     0.031100000000     0.863800000000     0          
O        O      0.685650000000     0.111450000000     0.652950000000     0          
O        O      0.722350000000     0.125750000000     0.706350000000     0          
O        O      0.660000000000     0.090250000000     0.709450000000     0          
O        O      0.660400000000     0.160400000000     0.694350000000     0          
O        O      0.723100000000     0.125350000000     0.599750000000     0          
O        O      0.657800000000     0.095650000000     0.595600000000     0          
O        O      0.664200000000     0.164200000000     0.613850000000     0          
O        O      0.708450000000     0.380600000000     0.688500000000     0          
O        O      0.725350000000     0.369200000000     0.750000000000     0          
O        O      0.734100000000     0.316850000000     0.706900000000     0          
O        O      0.663600000000     0.336400000000     0.657050000000     0          
O        O      0.710550000000     0.377650000000     0.624800000000     0          
O        O      0.733350000000     0.317500000000     0.595750000000     0          
O        O      0.719550000000     0.376950000000     0.561450000000     0          
O        O      0.709350000000     0.290650000000     0.651100000000     0          
O        O      0.661750000000     0.338250000000     0.545650000000     0          
O        O      0.699700000000     0.371400000000     0.500000000000     0          
T        Si     0.682050000000     0.122200000000     0.690800000000     0          
T        Si     0.682800000000     0.124250000000     0.615550000000     0          
T        Si     0.736450000000     0.360400000000     0.712900000000     0          
T        Si     0.684200000000     0.375400000000     0.656150000000     0          
T        Si     0.735050000000     0.361600000000     0.595500000000     0          
T        Si     0.685250000000     0.374250000000     0.536950000000     0          
T        Si     0.718900000000     0.281100000000     0.688400000000     0          
T        Si     0.718900000000     0.281100000000     0.613800000000     0          
O        O      0.638550000000     0.435650000000     0.902950000000     0          
O        O      0.624250000000     0.472350000000     0.956350000000     0          
O        O      0.659750000000     0.410000000000     0.959450000000     0          
O        O      0.589600000000     0.410400000000     0.944350000000     0          
O        O      0.624650000000     0.473100000000     0.849750000000     0          
O        O      0.654350000000     0.407800000000     0.845600000000     0          
O        O      0.585800000000     0.414200000000     0.863850000000     0          
O        O      0.869400000000     0.458450000000     0.938500000000     0          
O        O      0.880800000000     0.475350000000     0.500000000000     0          
O        O      0.933150000000     0.484100000000     0.956900000000     0          
O        O      0.913600000000     0.413600000000     0.907050000000     0          
O        O      0.872350000000     0.460550000000     0.874800000000     0          
O        O      0.932500000000     0.483350000000     0.845750000000     0          
O        O      0.873050000000     0.469550000000     0.811450000000     0          
O        O      0.959350000000     0.459350000000     0.901100000000     0          
O        O      0.911750000000     0.411750000000     0.795650000000     0          
O        O      0.878600000000     0.449700000000     0.750000000000     0          
T        Si     0.627800000000     0.432050000000     0.940800000000     0          
T        Si     0.625750000000     0.432800000000     0.865550000000     0          
T        Si     0.889600000000     0.486450000000     0.962900000000     0          
T        Si     0.874600000000     0.434200000000     0.906150000000     0          
T        Si     0.888400000000     0.485050000000     0.845500000000     0          
T        Si     0.875750000000     0.435250000000     0.786950000000     0          
T        Si     0.968900000000     0.468900000000     0.938400000000     0          
T        Si     0.968900000000     0.468900000000     0.863800000000     0          
O        O      0.935650000000     0.138550000000     0.902950000000     0          
O        O      0.972350000000     0.124250000000     0.956350000000     0          
O        O      0.910000000000     0.159750000000     0.959450000000     0          
O        O      0.973100000000     0.124650000000     0.849750000000     0          
O        O      0.907800000000     0.154350000000     0.845600000000     0          
O        O      0.958450000000     0.369400000000     0.938500000000     0          
O        O      0.984100000000     0.433150000000     0.956900000000     0          
O        O      0.960550000000     0.372350000000     0.874800000000     0          
O        O      0.983350000000     0.432500000000     0.845750000000     0          
O        O      0.969550000000     0.373050000000     0.811450000000     0          
T        Si     0.932050000000     0.127800000000     0.940800000000     0          
T        Si     0.932800000000     0.125750000000     0.865550000000     0          
T        Si     0.986450000000     0.389600000000     0.962900000000     0          
T        Si     0.934200000000     0.374600000000     0.906150000000     0          
T        Si     0.985050000000     0.388400000000     0.845500000000     0          
T        Si     0.935250000000     0.375750000000     0.786950000000     0          
O        O      0.611450000000     0.185650000000     0.652950000000     0          
O        O      0.625750000000     0.222350000000     0.706350000000     0          
O        O      0.590250000000     0.160000000000     0.709450000000     0          
O        O      0.625350000000     0.223100000000     0.599750000000     0          
O        O      0.595650000000     0.157800000000     0.595600000000     0          
O        O      0.880600000000     0.208450000000     0.688500000000     0          
O        O      0.816850000000     0.234100000000     0.706900000000     0          
O        O      0.877650000000     0.210550000000     0.624800000000     0          
O        O      0.817500000000     0.233350000000     0.595750000000     0          
O        O      0.876950000000     0.219550000000     0.561450000000     0          
T        Si     0.622200000000     0.182050000000     0.690800000000     0          
T        Si     0.624250000000     0.182800000000     0.615550000000     0          
T        Si     0.860400000000     0.236450000000     0.712900000000     0          
T        Si     0.875400000000     0.184200000000     0.656150000000     0          
T        Si     0.861600000000     0.235050000000     0.595500000000     0          
T        Si     0.874250000000     0.185250000000     0.536950000000     0          
O        O      0.564350000000     0.361450000000     0.902950000000     0          
O        O      0.527650000000     0.375750000000     0.956350000000     0          
O        O      0.590000000000     0.340250000000     0.959450000000     0          
O        O      0.526900000000     0.375350000000     0.849750000000     0          
O        O      0.592200000000     0.345650000000     0.845600000000     0          
O        O      0.541550000000     0.130600000000     0.938500000000     0          
O        O      0.515900000000     0.066850000000     0.956900000000     0          
O        O      0.539450000000     0.127650000000     0.874800000000     0          
O        O      0.516650000000     0.067500000000     0.845750000000     0          
O        O      0.530450000000     0.126950000000     0.811450000000     0          
T        Si     0.567950000000     0.372200000000     0.940800000000     0          
T        Si     0.567200000000     0.374250000000     0.865550000000     0          
T        Si     0.513550000000     0.110400000000     0.962900000000     0          
T        Si     0.565800000000     0.125400000000     0.906150000000     0          
T        Si     0.514950000000     0.111600000000     0.845500000000     0          
T        Si     0.564750000000     0.124250000000     0.786950000000     0          
O        O      0.888550000000     0.314350000000     0.652950000000     0          
O        O      0.874250000000     0.277650000000     0.706350000000     0          
O        O      0.909750000000     0.340000000000     0.709450000000     0          
O        O      0.874650000000     0.276900000000     0.599750000000     0          
O        O      0.904350000000     0.342200000000     0.595600000000     0          
O        O      0.619400000000     0.291550000000     0.688500000000     0          
O        O      0.683150000000     0.265900000000     0.706900000000     0          
O        O      0.622350000000     0.289450000000     0.624800000000     0          
O        O      0.682500000000     0.266650000000     0.595750000000     0          
O        O      0.623050000000     0.280450000000     0.561450000000     0          
T        Si     0.877800000000     0.317950000000     0.690800000000     0          
T        Si     0.875750000000     0.317200000000     0.615550000000     0          
T        Si     0.639600000000     0.263550000000     0.712900000000     0          
T        Si     0.624600000000     0.315800000000     0.656150000000     0          
T        Si     0.638400000000     0.264950000000     0.595500000000     0          
T        Si     0.625750000000     0.314750000000     0.536950000000     0          
O        O      0.685650000000     0.111450000000     0.847050000000     0          
O        O      0.722350000000     0.125750000000     0.793650000000     0          
O        O      0.660000000000     0.090250000000     0.790550000000     0          
O        O      0.723100000000     0.125350000000     0.900250000000     0          
O        O      0.657800000000     0.095650000000     0.904400000000     0          
O        O      0.708450000000     0.380600000000     0.811500000000     0          
O        O      0.734100000000     0.316850000000     0.793100000000     0          
O        O      0.710550000000     0.377650000000     0.875200000000     0          
O        O      0.733350000000     0.317500000000     0.904250000000     0          
O        O      0.719550000000     0.376950000000     0.938550000000     0          
T        Si     0.682050000000     0.122200000000     0.809200000000     0          
T        Si     0.682800000000     0.124250000000     0.884450000000     0          
T        Si     0.736450000000     0.360400000000     0.787100000000     0          
T        Si     0.684200000000     0.375400000000     0.843850000000     0          
T        Si     0.735050000000     0.361600000000     0.904500000000     0          
T        Si     0.685250000000     0.374250000000     0.963050000000     0          
O        O      0.638550000000     0.435650000000     0.597050000000     0          
O        O      0.624250000000     0.472350000000     0.543650000000     0          
O        O      0.659750000000     0.410000000000     0.540550000000     0          
O        O      0.624650000000     0.473100000000     0.650250000000     0          
O        O      0.654350000000     0.407800000000     0.654400000000     0          
O        O      0.869400000000     0.458450000000     0.561500000000     0          
O        O      0.933150000000     0.484100000000     0.543100000000     0          
O        O      0.872350000000     0.460550000000     0.625200000000     0          
O        O      0.932500000000     0.483350000000     0.654250000000     0          
O        O      0.873050000000     0.469550000000     0.688550000000     0          
T        Si     0.627800000000     0.432050000000     0.559200000000     0          
T        Si     0.625750000000     0.432800000000     0.634450000000     0          
T        Si     0.889600000000     0.486450000000     0.537100000000     0          
T        Si     0.874600000000     0.434200000000     0.593850000000     0          
T        Si     0.888400000000     0.485050000000     0.654500000000     0          
T        Si     0.875750000000     0.435250000000     0.713050000000     0          
O        O      0.814350000000     0.388550000000     0.847050000000     0          
O        O      0.777650000000     0.374250000000     0.793650000000     0          
O        O      0.840000000000     0.409750000000     0.790550000000     0          
O        O      0.776900000000     0.374650000000     0.900250000000     0          
O        O      0.842200000000     0.404350000000     0.904400000000     0          
O        O      0.791550000000     0.119400000000     0.811500000000     0          
O        O      0.765900000000     0.183150000000     0.793100000000     0          
O        O      0.789450000000     0.122350000000     0.875200000000     0          
O        O      0.766650000000     0.182500000000     0.904250000000     0          
O        O      0.780450000000     0.123050000000     0.938550000000     0          
T        Si     0.817950000000     0.377800000000     0.809200000000     0          
T        Si     0.817200000000     0.375750000000     0.884450000000     0          
T        Si     0.763550000000     0.139600000000     0.787100000000     0          
T        Si     0.815800000000     0.124600000000     0.843850000000     0          
T        Si     0.764950000000     0.138400000000     0.904500000000     0          
T        Si     0.814750000000     0.125750000000     0.963050000000     0          
O        O      0.861450000000     0.064350000000     0.597050000000     0          
O        O      0.875750000000     0.027650000000     0.543650000000     0          
O        O      0.840250000000     0.090000000000     0.540550000000     0          
O        O      0.875350000000     0.026900000000     0.650250000000     0          
O        O      0.845650000000     0.092200000000     0.654400000000     0          
O        O      0.630600000000     0.041550000000     0.561500000000     0          
O        O      0.566850000000     0.015900000000     0.543100000000     0          
O        O      0.627650000000     0.039450000000     0.625200000000     0          
O        O      0.567500000000     0.016650000000     0.654250000000     0          
O        O      0.626950000000     0.030450000000     0.688550000000     0          
T        Si     0.872200000000     0.067950000000     0.559200000000     0          
T        Si     0.874250000000     0.067200000000     0.634450000000     0          
T        Si     0.610400000000     0.013550000000     0.537100000000     0          
T        Si     0.625400000000     0.065800000000     0.593850000000     0          
T        Si     0.611600000000     0.014950000000     0.654500000000     0          
T        Si     0.624250000000     0.064750000000     0.713050000000     0          
O        O      0.564350000000     0.861450000000     0.097050000000     0          
O        O      0.527650000000     0.875750000000     0.043650000000     0          
O        O      0.590000000000     0.840250000000     0.040550000000     0          
O        O      0.589600000000     0.910400000000     0.055650000000     0          
O        O      0.526900000000     0.875350000000     0.150250000000     0          
O        O      0.592200000000     0.845650000000     0.154400000000     0          
O        O      0.585800000000     0.914200000000     0.136150000000     0          
O        O      0.541550000000     0.630600000000     0.061500000000     0          
O        O      0.524650000000     0.619200000000     0.000000000000     0          
O        O      0.515900000000     0.566850000000     0.043100000000     0          
O        O      0.586400000000     0.586400000000     0.092950000000     0          
O        O      0.539450000000     0.627650000000     0.125200000000     0          
O        O      0.516650000000     0.567500000000     0.154250000000     0          
O        O      0.530450000000     0.626950000000     0.188550000000     0          
O        O      0.500000000000     0.500000000000     0.060500000000     0          
O        O      0.540650000000     0.540650000000     0.098900000000     0          
O        O      0.500000000000     0.500000000000     0.137700000000     0          
O        O      0.588250000000     0.588250000000     0.204350000000     0          
O        O      0.550300000000     0.621400000000     0.250000000000     0          
T        Si     0.567950000000     0.872200000000     0.059200000000     0          
T        Si     0.567200000000     0.874250000000     0.134450000000     0          
T        Si     0.513550000000     0.610400000000     0.037100000000     0          
T        Si     0.565800000000     0.625400000000     0.093850000000     0          
T        Si     0.514950000000     0.611600000000     0.154500000000     0          
T        Si     0.564750000000     0.624250000000     0.213050000000     0          
T        Si     0.531100000000     0.531100000000     0.061600000000     0          
T        Si     0.531100000000     0.531100000000     0.136200000000     0          
O        O      0.888550000000     0.814350000000     0.347050000000     0          
O        O      0.874250000000     0.777650000000     0.293650000000     0          
O        O      0.909750000000     0.840000000000     0.290550000000     0          
O        O      0.839600000000     0.839600000000     0.305650000000     0          
O        O      0.874650000000     0.776900000000     0.400250000000     0          
O        O      0.904350000000     0.842200000000     0.404400000000     0          
O        O      0.835800000000     0.835800000000     0.386150000000     0          
O        O      0.619400000000     0.791550000000     0.311500000000     0          
O        O      0.630800000000     0.774650000000     0.250000000000     0          
O        O      0.683150000000     0.765900000000     0.293100000000     0          
O        O      0.663600000000     0.836400000000     0.342950000000     0          
O        O      0.622350000000     0.789450000000     0.375200000000     0          
O        O      0.682500000000     0.766650000000     0.404250000000     0          
O        O      0.623050000000     0.780450000000     0.438550000000     0          
O        O      0.750000000000     0.750000000000     0.310500000000     0          
O        O      0.709350000000     0.790650000000     0.348900000000     0          
O        O      0.750000000000     0.750000000000     0.387700000000     0          
O        O      0.661750000000     0.838250000000     0.454350000000     0          
O        O      0.628600000000     0.800300000000     0.000000000000     0          
T        Si     0.877800000000     0.817950000000     0.309200000000     0          
T        Si     0.875750000000     0.817200000000     0.384450000000     0          
T        Si     0.639600000000     0.763550000000     0.287100000000     0          
T        Si     0.624600000000     0.815800000000     0.343850000000     0          
T        Si     0.638400000000     0.764950000000     0.404500000000     0          
T        Si     0.625750000000     0.814750000000     0.463050000000     0          
T        Si     0.718900000000     0.781100000000     0.311600000000     0          
T        Si     0.718900000000     0.781100000000     0.386200000000     0          
O        O      0.935650000000     0.638550000000     0.097050000000     0          
O        O      0.972350000000     0.624250000000     0.043650000000     0          
O        O      0.910000000000     0.659750000000     0.040550000000     0          
O        O      0.910400000000     0.589600000000     0.055650000000     0          
O        O      0.973100000000     0.624650000000     0.150250000000     0          
O        O      0.907800000000     0.654350000000     0.154400000000     0          
O        O      0.914200000000     0.585800000000     0.136150000000     0          
O        O      0.958450000000     0.869400000000     0.061500000000     0          
O        O      0.975350000000     0.880800000000     0.000000000000     0          
O        O      0.984100000000     0.933150000000     0.043100000000     0          
O        O      0.913600000000     0.913600000000     0.092950000000     0          
O        O      0.960550000000     0.872350000000     0.125200000000     0          
O        O      0.983350000000     0.932500000000     0.154250000000     0          
O        O      0.969550000000     0.873050000000     0.188550000000     0          
O        O      0.959350000000     0.959350000000     0.098900000000     0          
O        O      0.911750000000     0.911750000000     0.204350000000     0          
O        O      0.949700000000     0.878600000000     0.250000000000     0          
T        Si     0.932050000000     0.627800000000     0.059200000000     0          
T        Si     0.932800000000     0.625750000000     0.134450000000     0          
T        Si     0.986450000000     0.889600000000     0.037100000000     0          
T        Si     0.934200000000     0.874600000000     0.093850000000     0          
T        Si     0.985050000000     0.888400000000     0.154500000000     0          
T        Si     0.935250000000     0.875750000000     0.213050000000     0          
T        Si     0.968900000000     0.968900000000     0.061600000000     0          
T        Si     0.968900000000     0.968900000000     0.136200000000     0          
O        O      0.611450000000     0.685650000000     0.347050000000     0          
O        O      0.625750000000     0.722350000000     0.293650000000     0          
O        O      0.590250000000     0.660000000000     0.290550000000     0          
O        O      0.660400000000     0.660400000000     0.305650000000     0          
O        O      0.625350000000     0.723100000000     0.400250000000     0          
O        O      0.595650000000     0.657800000000     0.404400000000     0          
O        O      0.664200000000     0.664200000000     0.386150000000     0          
O        O      0.880600000000     0.708450000000     0.311500000000     0          
O        O      0.869200000000     0.725350000000     0.250000000000     0          
O        O      0.816850000000     0.734100000000     0.293100000000     0          
O        O      0.836400000000     0.663600000000     0.342950000000     0          
O        O      0.877650000000     0.710550000000     0.375200000000     0          
O        O      0.817500000000     0.733350000000     0.404250000000     0          
O        O      0.876950000000     0.719550000000     0.438550000000     0          
O        O      0.790650000000     0.709350000000     0.348900000000     0          
O        O      0.838250000000     0.661750000000     0.454350000000     0          
O        O      0.871400000000     0.699700000000     0.000000000000     0          
T        Si     0.622200000000     0.682050000000     0.309200000000     0          
T        Si     0.624250000000     0.682800000000     0.384450000000     0          
T        Si     0.860400000000     0.736450000000     0.287100000000     0          
T        Si     0.875400000000     0.684200000000     0.343850000000     0          
T        Si     0.861600000000     0.735050000000     0.404500000000     0          
T        Si     0.874250000000     0.685250000000     0.463050000000     0          
T        Si     0.781100000000     0.718900000000     0.311600000000     0          
T        Si     0.781100000000     0.718900000000     0.386200000000     0          
O        O      0.814350000000     0.888550000000     0.152950000000     0          
O        O      0.777650000000     0.874250000000     0.206350000000     0          
O        O      0.840000000000     0.909750000000     0.209450000000     0          
O        O      0.839600000000     0.839600000000     0.194350000000     0          
O        O      0.776900000000     0.874650000000     0.099750000000     0          
O        O      0.842200000000     0.904350000000     0.095600000000     0          
O        O      0.835800000000     0.835800000000     0.113850000000     0          
O        O      0.791550000000     0.619400000000     0.188500000000     0          
O        O      0.774650000000     0.630800000000     0.250000000000     0          
O        O      0.765900000000     0.683150000000     0.206900000000     0          
O        O      0.836400000000     0.663600000000     0.157050000000     0          
O        O      0.789450000000     0.622350000000     0.124800000000     0          
O        O      0.766650000000     0.682500000000     0.095750000000     0          
O        O      0.780450000000     0.623050000000     0.061450000000     0          
O        O      0.750000000000     0.750000000000     0.189500000000     0          
O        O      0.790650000000     0.709350000000     0.151100000000     0          
O        O      0.750000000000     0.750000000000     0.112300000000     0          
O        O      0.838250000000     0.661750000000     0.045650000000     0          
O        O      0.800300000000     0.628600000000     0.000000000000     0          
T        Si     0.817950000000     0.877800000000     0.190800000000     0          
T        Si     0.817200000000     0.875750000000     0.115550000000     0          
T        Si     0.763550000000     0.639600000000     0.212900000000     0          
T        Si     0.815800000000     0.624600000000     0.156150000000     0          
T        Si     0.764950000000     0.638400000000     0.095500000000     0          
T        Si     0.814750000000     0.625750000000     0.036950000000     0          
T        Si     0.781100000000     0.718900000000     0.188400000000     0          
T        Si     0.781100000000     0.718900000000     0.113800000000     0          
O        O      0.861450000000     0.564350000000     0.402950000000     0          
O        O      0.875750000000     0.527650000000     0.456350000000     0          
O        O      0.840250000000     0.590000000000     0.459450000000     0          
O        O      0.910400000000     0.589600000000     0.444350000000     0          
O        O      0.875350000000     0.526900000000     0.349750000000     0          
O        O      0.845650000000     0.592200000000     0.345600000000     0          
O        O      0.914200000000     0.585800000000     0.363850000000     0          
O        O      0.630600000000     0.541550000000     0.438500000000     0          
O        O      0.619200000000     0.524650000000     0.000000000000     0          
O        O      0.566850000000     0.515900000000     0.456900000000     0          
O        O      0.586400000000     0.586400000000     0.407050000000     0          
O        O      0.627650000000     0.539450000000     0.374800000000     0          
O        O      0.567500000000     0.516650000000     0.345750000000     0          
O        O      0.626950000000     0.530450000000     0.311450000000     0          
O        O      0.500000000000     0.500000000000     0.439500000000     0          
O        O      0.540650000000     0.540650000000     0.401100000000     0          
O        O      0.500000000000     0.500000000000     0.362300000000     0          
O        O      0.588250000000     0.588250000000     0.295650000000     0          
O        O      0.621400000000     0.550300000000     0.250000000000     0          
T        Si     0.872200000000     0.567950000000     0.440800000000     0          
T        Si     0.874250000000     0.567200000000     0.365550000000     0          
T        Si     0.610400000000     0.513550000000     0.462900000000     0          
T        Si     0.625400000000     0.565800000000     0.406150000000     0          
T        Si     0.611600000000     0.514950000000     0.345500000000     0          
T        Si     0.624250000000     0.564750000000     0.286950000000     0          
T        Si     0.531100000000     0.531100000000     0.438400000000     0          
T        Si     0.531100000000     0.531100000000     0.363800000000     0          
O        O      0.685650000000     0.611450000000     0.152950000000     0          
O        O      0.722350000000     0.625750000000     0.206350000000     0          
O        O      0.660000000000     0.590250000000     0.209450000000     0          
O        O      0.660400000000     0.660400000000     0.194350000000     0          
O        O      0.723100000000     0.625350000000     0.099750000000     0          
O        O      0.657800000000     0.595650000000     0.095600000000     0          
O        O      0.664200000000     0.664200000000     0.113850000000     0          
O        O      0.708450000000     0.880600000000     0.188500000000     0          
O        O      0.725350000000     0.869200000000     0.250000000000     0          
O        O      0.734100000000     0.816850000000     0.206900000000     0          
O        O      0.663600000000     0.836400000000     0.157050000000     0          
O        O      0.710550000000     0.877650000000     0.124800000000     0          
O        O      0.733350000000     0.817500000000     0.095750000000     0          
O        O      0.719550000000     0.876950000000     0.061450000000     0          
O        O      0.709350000000     0.790650000000     0.151100000000     0          
O        O      0.661750000000     0.838250000000     0.045650000000     0          
O        O      0.699700000000     0.871400000000     0.000000000000     0          
T        Si     0.682050000000     0.622200000000     0.190800000000     0          
T        Si     0.682800000000     0.624250000000     0.115550000000     0          
T        Si     0.736450000000     0.860400000000     0.212900000000     0          
T        Si     0.684200000000     0.875400000000     0.156150000000     0          
T        Si     0.735050000000     0.861600000000     0.095500000000     0          
T        Si     0.685250000000     0.874250000000     0.036950000000     0          
T        Si     0.718900000000     0.781100000000     0.188400000000     0          
T        Si     0.718900000000     0.781100000000     0.113800000000     0          
O        O      0.638550000000     0.935650000000     0.402950000000     0          
O        O      0.624250000000     0.972350000000     0.456350000000     0          
O        O      0.659750000000     0.910000000000     0.459450000000     0          
O        O      0.589600000000     0.910400000000     0.444350000000     0          
O        O      0.624650000000     0.973100000000     0.349750000000     0          
O        O      0.654350000000     0.907800000000     0.345600000000     0          
O        O      0.585800000000     0.914200000000     0.363850000000     0          
O        O      0.869400000000     0.958450000000     0.438500000000     0          
O        O      0.880800000000     0.975350000000     0.000000000000     0          
O        O      0.933150000000     0.984100000000     0.456900000000     0          
O        O      0.913600000000     0.913600000000     0.407050000000     0          
O        O      0.872350000000     0.960550000000     0.374800000000     0          
O        O      0.932500000000     0.983350000000     0.345750000000     0          
O        O      0.873050000000     0.969550000000     0.311450000000     0          
O        O      0.959350000000     0.959350000000     0.401100000000     0          
O        O      0.911750000000     0.911750000000     0.295650000000     0          
O        O      0.878600000000     0.949700000000     0.250000000000     0          
T        Si     0.627800000000     0.932050000000     0.440800000000     0          
T        Si     0.625750000000     0.932800000000     0.365550000000     0          
T        Si     0.889600000000     0.986450000000     0.462900000000     0          
T        Si     0.874600000000     0.934200000000     0.406150000000     0          
T        Si     0.888400000000     0.985050000000     0.345500000000     0          
T        Si     0.875750000000     0.935250000000     0.286950000000     0          
T        Si     0.968900000000     0.968900000000     0.438400000000     0          
T        Si     0.968900000000     0.968900000000     0.363800000000     0          
O        O      0.935650000000     0.638550000000     0.402950000000     0          
O        O      0.972350000000     0.624250000000     0.456350000000     0          
O        O      0.910000000000     0.659750000000     0.459450000000     0          
O        O      0.973100000000     0.624650000000     0.349750000000     0          
O        O      0.907800000000     0.654350000000     0.345600000000     0          
O        O      0.958450000000     0.869400000000     0.438500000000     0          
O        O      0.984100000000     0.933150000000     0.456900000000     0          
O        O      0.960550000000     0.872350000000     0.374800000000     0          
O        O      0.983350000000     0.932500000000     0.345750000000     0          
O        O      0.969550000000     0.873050000000     0.311450000000     0          
T        Si     0.932050000000     0.627800000000     0.440800000000     0          
T        Si     0.932800000000     0.625750000000     0.365550000000     0          
T        Si     0.986450000000     0.889600000000     0.462900000000     0          
T        Si     0.934200000000     0.874600000000     0.406150000000     0          
T        Si     0.985050000000     0.888400000000     0.345500000000     0          
T        Si     0.935250000000     0.875750000000     0.286950000000     0          
O        O      0.611450000000     0.685650000000     0.152950000000     0          
O        O      0.625750000000     0.722350000000     0.206350000000     0          
O        O      0.590250000000     0.660000000000     0.209450000000     0          
O        O      0.625350000000     0.723100000000     0.099750000000     0          
O        O      0.595650000000     0.657800000000     0.095600000000     0          
O        O      0.880600000000     0.708450000000     0.188500000000     0          
O        O      0.816850000000     0.734100000000     0.206900000000     0          
O        O      0.877650000000     0.710550000000     0.124800000000     0          
O        O      0.817500000000     0.733350000000     0.095750000000     0          
O        O      0.876950000000     0.719550000000     0.061450000000     0          
T        Si     0.622200000000     0.682050000000     0.190800000000     0          
T        Si     0.624250000000     0.682800000000     0.115550000000     0          
T        Si     0.860400000000     0.736450000000     0.212900000000     0          
T        Si     0.875400000000     0.684200000000     0.156150000000     0          
T        Si     0.861600000000     0.735050000000     0.095500000000     0          
T        Si     0.874250000000     0.685250000000     0.036950000000     0          
O        O      0.564350000000     0.861450000000     0.402950000000     0          
O        O      0.527650000000     0.875750000000     0.456350000000     0          
O        O      0.590000000000     0.840250000000     0.459450000000     0          
O        O      0.526900000000     0.875350000000     0.349750000000     0          
O        O      0.592200000000     0.845650000000     0.345600000000     0          
O        O      0.541550000000     0.630600000000     0.438500000000     0          
O        O      0.515900000000     0.566850000000     0.456900000000     0          
O        O      0.539450000000     0.627650000000     0.374800000000     0          
O        O      0.516650000000     0.567500000000     0.345750000000     0          
O        O      0.530450000000     0.626950000000     0.311450000000     0          
T        Si     0.567950000000     0.872200000000     0.440800000000     0          
T        Si     0.567200000000     0.874250000000     0.365550000000     0          
T        Si     0.513550000000     0.610400000000     0.462900000000     0          
T        Si     0.565800000000     0.625400000000     0.406150000000     0          
T        Si     0.514950000000     0.611600000000     0.345500000000     0          
T        Si     0.564750000000     0.624250000000     0.286950000000     0          
O        O      0.888550000000     0.814350000000     0.152950000000     0          
O        O      0.874250000000     0.777650000000     0.206350000000     0          
O        O      0.909750000000     0.840000000000     0.209450000000     0          
O        O      0.874650000000     0.776900000000     0.099750000000     0          
O        O      0.904350000000     0.842200000000     0.095600000000     0          
O        O      0.619400000000     0.791550000000     0.188500000000     0          
O        O      0.683150000000     0.765900000000     0.206900000000     0          
O        O      0.622350000000     0.789450000000     0.124800000000     0          
O        O      0.682500000000     0.766650000000     0.095750000000     0          
O        O      0.623050000000     0.780450000000     0.061450000000     0          
T        Si     0.877800000000     0.817950000000     0.190800000000     0          
T        Si     0.875750000000     0.817200000000     0.115550000000     0          
T        Si     0.639600000000     0.763550000000     0.212900000000     0          
T        Si     0.624600000000     0.815800000000     0.156150000000     0          
T        Si     0.638400000000     0.764950000000     0.095500000000     0          
T        Si     0.625750000000     0.814750000000     0.036950000000     0          
O        O      0.685650000000     0.611450000000     0.347050000000     0          
O        O      0.722350000000     0.625750000000     0.293650000000     0          
O        O      0.660000000000     0.590250000000     0.290550000000     0          
O        O      0.723100000000     0.625350000000     0.400250000000     0          
O        O      0.657800000000     0.595650000000     0.404400000000     0          
O        O      0.708450000000     0.880600000000     0.311500000000     0          
O        O      0.734100000000     0.816850000000     0.293100000000     0          
O        O      0.710550000000     0.877650000000     0.375200000000     0          
O        O      0.733350000000     0.817500000000     0.404250000000     0          
O        O      0.719550000000     0.876950000000     0.438550000000     0          
T        Si     0.682050000000     0.622200000000     0.309200000000     0          
T        Si     0.682800000000     0.624250000000     0.384450000000     0          
T        Si     0.736450000000     0.860400000000     0.287100000000     0          
T        Si     0.684200000000     0.875400000000     0.343850000000     0          
T        Si     0.735050000000     0.861600000000     0.404500000000     0          
T        Si     0.685250000000     0.874250000000     0.463050000000     0          
O        O      0.638550000000     0.935650000000     0.097050000000     0          
O        O      0.624250000000     0.972350000000     0.043650000000     0          
O        O      0.659750000000     0.910000000000     0.040550000000     0          
O        O      0.624650000000     0.973100000000     0.150250000000     0          
O        O      0.654350000000     0.907800000000     0.154400000000     0          
O        O      0.869400000000     0.958450000000     0.061500000000     0          
O        O      0.933150000000     0.984100000000     0.043100000000     0          
O        O      0.872350000000     0.960550000000     0.125200000000     0          
O        O      0.932500000000     0.983350000000     0.154250000000     0          
O        O      0.873050000000     0.969550000000     0.188550000000     0          
T        Si     0.627800000000     0.932050000000     0.059200000000     0          
T        Si     0.625750000000     0.932800000000     0.134450000000     0          
T        Si     0.889600000000     0.986450000000     0.037100000000     0          
T        Si     0.874600000000     0.934200000000     0.093850000000     0          
T        Si     0.888400000000     0.985050000000     0.154500000000     0          
T        Si     0.875750000000     0.935250000000     0.213050000000     0          
O        O      0.814350000000     0.888550000000     0.347050000000     0          
O        O      0.777650000000     0.874250000000     0.293650000000     0          
O        O      0.840000000000     0.909750000000     0.290550000000     0          
O        O      0.776900000000     0.874650000000     0.400250000000     0          
O        O      0.842200000000     0.904350000000     0.404400000000     0          
O        O      0.791550000000     0.619400000000     0.311500000000     0          
O        O      0.765900000000     0.683150000000     0.293100000000     0          
O        O      0.789450000000     0.622350000000     0.375200000000     0          
O        O      0.766650000000     0.682500000000     0.404250000000     0          
O        O      0.780450000000     0.623050000000     0.438550000000     0          
T        Si     0.817950000000     0.877800000000     0.309200000000     0          
T        Si     0.817200000000     0.875750000000     0.384450000000     0          
T        Si     0.763550000000     0.639600000000     0.287100000000     0          
T        Si     0.815800000000     0.624600000000     0.343850000000     0          
T        Si     0.764950000000     0.638400000000     0.404500000000     0          
T        Si     0.814750000000     0.625750000000     0.463050000000     0          
O        O      0.861450000000     0.564350000000     0.097050000000     0          
O        O      0.875750000000     0.527650000000     0.043650000000     0          
O        O      0.840250000000     0.590000000000     0.040550000000     0          
O        O      0.875350000000     0.526900000000     0.150250000000     0          
O        O      0.845650000000     0.592200000000     0.154400000000     0          
O        O      0.630600000000     0.541550000000     0.061500000000     0          
O        O      0.566850000000     0.515900000000     0.043100000000     0          
O        O      0.627650000000     0.539450000000     0.125200000000     0          
O        O      0.567500000000     0.516650000000     0.154250000000     0          
O        O      0.626950000000     0.530450000000     0.188550000000     0          
T        Si     0.872200000000     0.567950000000     0.059200000000     0          
T        Si     0.874250000000     0.567200000000     0.134450000000     0          
T        Si     0.610400000000     0.513550000000     0.037100000000     0          
T        Si     0.625400000000     0.565800000000     0.093850000000     0          
T        Si     0.611600000000     0.514950000000     0.154500000000     0          
T        Si     0.624250000000     0.564750000000     0.213050000000     0          
O        O      0.564350000000     0.861450000000     0.597050000000     0          
O        O      0.527650000000     0.875750000000     0.543650000000     0          
O        O      0.590000000000     0.840250000000     0.540550000000     0          
O        O      0.589600000000     0.910400000000     0.555650000000     0          
O        O      0.526900000000     0.875350000000     0.650250000000     0          
O        O      0.592200000000     0.845650000000     0.654400000000     0          
O        O      0.585800000000     0.914200000000     0.636150000000     0          
O        O      0.541550000000     0.630600000000     0.561500000000     0          
O        O      0.524650000000     0.619200000000     0.500000000000     0          
O        O      0.515900000000     0.566850000000     0.543100000000     0          
O        O      0.586400000000     0.586400000000     0.592950000000     0          
O        O      0.539450000000     0.627650000000     0.625200000000     0          
O        O      0.516650000000     0.567500000000     0.654250000000     0          
O        O      0.530450000000     0.626950000000     0.688550000000     0          
O        O      0.500000000000     0.500000000000     0.560500000000     0          
O        O      0.540650000000     0.540650000000     0.598900000000     0          
O        O      0.500000000000     0.500000000000     0.637700000000     0          
O        O      0.588250000000     0.588250000000     0.704350000000     0          
O        O      0.550300000000     0.621400000000     0.750000000000     0          
T        Si     0.567950000000     0.872200000000     0.559200000000     0          
T        Si     0.567200000000     0.874250000000     0.634450000000     0          
T        Si     0.513550000000     0.610400000000     0.537100000000     0          
T        Si     0.565800000000     0.625400000000     0.593850000000     0          
T        Si     0.514950000000     0.611600000000     0.654500000000     0          
T        Si     0.564750000000     0.624250000000     0.713050000000     0          
T        Si     0.531100000000     0.531100000000     0.561600000000     0          
T        Si     0.531100000000     0.531100000000     0.636200000000     0          
O        O      0.888550000000     0.814350000000     0.847050000000     0          
O        O      0.874250000000     0.777650000000     0.793650000000     0          
O        O      0.909750000000     0.840000000000     0.790550000000     0          
O        O      0.839600000000     0.839600000000     0.805650000000     0          
O        O      0.874650000000     0.776900000000     0.900250000000     0          
O        O      0.904350000000     0.842200000000     0.904400000000     0          
O        O      0.835800000000     0.835800000000     0.886150000000     0          
O        O      0.619400000000     0.791550000000     0.811500000000     0          
O        O      0.630800000000     0.774650000000     0.750000000000     0          
O        O      0.683150000000     0.765900000000     0.793100000000     0          
O        O      0.663600000000     0.836400000000     0.842950000000     0          
O        O      0.622350000000     0.789450000000     0.875200000000     0          
O        O      0.682500000000     0.766650000000     0.904250000000     0          
O        O      0.623050000000     0.780450000000     0.938550000000     0          
O        O      0.750000000000     0.750000000000     0.810500000000     0          
O        O      0.709350000000     0.790650000000     0.848900000000     0          
O        O      0.750000000000     0.750000000000     0.887700000000     0          
O        O      0.661750000000     0.838250000000     0.954350000000     0          
O        O      0.628600000000     0.800300000000     0.500000000000     0          
T        Si     0.877800000000     0.817950000000     0.809200000000     0          
T        Si     0.875750000000     0.817200000000     0.884450000000     0          
T        Si     0.639600000000     0.763550000000     0.787100000000     0          
T        Si     0.624600000000     0.815800000000     0.843850000000     0          
T        Si     0.638400000000     0.764950000000     0.904500000000     0          
T        Si     0.625750000000     0.814750000000     0.963050000000     0          
T        Si     0.718900000000     0.781100000000     0.811600000000     0          
T        Si     0.718900000000     0.781100000000     0.886200000000     0          
O        O      0.935650000000     0.638550000000     0.597050000000     0          
O        O      0.972350000000     0.624250000000     0.543650000000     0          
O        O      0.910000000000     0.659750000000     0.540550000000     0          
O        O      0.910400000000     0.589600000000     0.555650000000     0          
O        O      0.973100000000     0.624650000000     0.650250000000     0          
O        O      0.907800000000     0.654350000000     0.654400000000     0          
O        O      0.914200000000     0.585800000000     0.636150000000     0          
O        O      0.958450000000     0.869400000000     0.561500000000     0          
O        O      0.975350000000     0.880800000000     0.500000000000     0          
O        O      0.984100000000     0.933150000000     0.543100000000     0          
O        O      0.913600000000     0.913600000000     0.592950000000     0          
O        O      0.960550000000     0.872350000000     0.625200000000     0          
O        O      0.983350000000     0.932500000000     0.654250000000     0          
O        O      0.969550000000     0.873050000000     0.688550000000     0          
O        O      0.959350000000     0.959350000000     0.598900000000     0          
O        O      0.911750000000     0.911750000000     0.704350000000     0          
O        O      0.949700000000     0.878600000000     0.750000000000     0          
T        Si     0.932050000000     0.627800000000     0.559200000000     0          
T        Si     0.932800000000     0.625750000000     0.634450000000     0          
T        Si     0.986450000000     0.889600000000     0.537100000000     0          
T        Si     0.934200000000     0.874600000000     0.593850000000     0          
T        Si     0.985050000000     0.888400000000     0.654500000000     0          
T        Si     0.935250000000     0.875750000000     0.713050000000     0          
T        Si     0.968900000000     0.968900000000     0.561600000000     0          
T        Si     0.968900000000     0.968900000000     0.636200000000     0          
O        O      0.611450000000     0.685650000000     0.847050000000     0          
O        O      0.625750000000     0.722350000000     0.793650000000     0          
O        O      0.590250000000     0.660000000000     0.790550000000     0          
O        O      0.660400000000     0.660400000000     0.805650000000     0          
O        O      0.625350000000     0.723100000000     0.900250000000     0          
O        O      0.595650000000     0.657800000000     0.904400000000     0          
O        O      0.664200000000     0.664200000000     0.886150000000     0          
O        O      0.880600000000     0.708450000000     0.811500000000     0          
O        O      0.869200000000     0.725350000000     0.750000000000     0          
O        O      0.816850000000     0.734100000000     0.793100000000     0          
O        O      0.836400000000     0.663600000000     0.842950000000     0          
O        O      0.877650000000     0.710550000000     0.875200000000     0          
O        O      0.817500000000     0.733350000000     0.904250000000     0          
O        O      0.876950000000     0.719550000000     0.938550000000     0          
O        O      0.790650000000     0.709350000000     0.848900000000     0          
O        O      0.838250000000     0.661750000000     0.954350000000     0          
O        O      0.871400000000     0.699700000000     0.500000000000     0          
T        Si     0.622200000000     0.682050000000     0.809200000000     0          
T        Si     0.624250000000     0.682800000000     0.884450000000     0          
T        Si     0.860400000000     0.736450000000     0.787100000000     0          
T        Si     0.875400000000     0.684200000000     0.843850000000     0          
T        Si     0.861600000000     0.735050000000     0.904500000000     0          
T        Si     0.874250000000     0.685250000000     0.963050000000     0          
T        Si     0.781100000000     0.718900000000     0.811600000000     0          
T        Si     0.781100000000     0.718900000000     0.886200000000     0          
O        O      0.814350000000     0.888550000000     0.652950000000     0          
O        O      0.777650000000     0.874250000000     0.706350000000     0          
O        O      0.840000000000     0.909750000000     0.709450000000     0          
O        O      0.839600000000     0.839600000000     0.694350000000     0          
O        O      0.776900000000     0.874650000000     0.599750000000     0          
O        O      0.842200000000     0.904350000000     0.595600000000     0          
O        O      0.835800000000     0.835800000000     0.613850000000     0          
O        O      0.791550000000     0.619400000000     0.688500000000     0          
O        O      0.774650000000     0.630800000000     0.750000000000     0          
O        O      0.765900000000     0.683150000000     0.706900000000     0          
O        O      0.836400000000     0.663600000000     0.657050000000     0          
O        O      0.789450000000     0.622350000000     0.624800000000     0          
O        O      0.766650000000     0.682500000000     0.595750000000     0          
O        O      0.780450000000     0.623050000000     0.561450000000     0          
O        O      0.750000000000     0.750000000000     0.689500000000     0          
O        O      0.790650000000     0.709350000000     0.651100000000     0          
O        O      0.750000000000     0.750000000000     0.612300000000     0          
O        O      0.838250000000     0.661750000000     0.545650000000     0          
O        O      0.800300000000     0.628600000000     0.500000000000     0          
T        Si     0.817950000000     0.877800000000     0.690800000000     0          
T        Si     0.817200000000     0.875750000000     0.615550000000     0          
T        Si     0.763550000000     0.639600000000     0.712900000000     0          
T        Si     0.815800000000     0.624600000000     0.656150000000     0          
T        Si     0.764950000000     0.638400000000     0.595500000000     0          
T        Si     0.814750000000     0.625750000000     0.536950000000     0          
T        Si     0.781100000000     0.718900000000     0.688400000000     0          
T        Si     0.781100000000     0.718900000000     0.613800000000     0          
O        O      0.861450000000     0.564350000000     0.902950000000     0          
O        O      0.875750000000     0.527650000000     0.956350000000     0          
O        O      0.840250000000     0.590000000000     0.959450000000     0          
O        O      0.910400000000     0.589600000000     0.944350000000     0          
O        O      0.875350000000     0.526900000000     0.849750000000     0          
O        O      0.845650000000     0.592200000000     0.845600000000     0          
O        O      0.914200000000     0.585800000000     0.863850000000     0          
O        O      0.630600000000     0.541550000000     0.938500000000     0          
O        O      0.619200000000     0.524650000000     0.500000000000     0          
O        O      0.566850000000     0.515900000000     0.956900000000     0          
O        O      0.586400000000     0.586400000000     0.907050000000     0          
O        O      0.627650000000     0.539450000000     0.874800000000     0          
O        O      0.567500000000     0.516650000000     0.845750000000     0          
O        O      0.626950000000     0.530450000000     0.811450000000     0          
O        O      0.500000000000     0.500000000000     0.939500000000     0          
O        O      0.540650000000     0.540650000000     0.901100000000     0          
O        O      0.500000000000     0.500000000000     0.862300000000     0          
O        O      0.588250000000     0.588250000000     0.795650000000     0          
O        O      0.621400000000     0.550300000000     0.750000000000     0          
T        Si     0.872200000000     0.567950000000     0.940800000000     0          
T        Si     0.874250000000     0.567200000000     0.865550000000     0          
T        Si     0.610400000000     0.513550000000     0.962900000000     0          
T        Si     0.625400000000     0.565800000000     0.906150000000     0          
T        Si     0.611600000000     0.514950000000     0.845500000000     0          
T        Si     0.624250000000     0.564750000000     0.786950000000     0          
T        Si     0.531100000000     0.531100000000     0.938400000000     0          
T        Si     0.531100000000     0.531100000000     0.863800000000     0          
O        O      0.685650000000     0.611450000000     0.652950000000     0          
O        O      0.722350000000     0.625750000000     0.706350000000     0          
O        O      0.660000000000     0.590250000000     0.709450000000     0          
O        O      0.660400000000     0.660400000000     0.694350000000     0          
O        O      0.723100000000     0.625350000000     0.599750000000     0          
O        O      0.657800000000     0.595650000000     0.595600000000     0          
O        O      0.664200000000     0.664200000000     0.613850000000     0          
O        O      0.708450000000     0.880600000000     0.688500000000     0          
O        O      0.725350000000     0.869200000000     0.750000000000     0          
O        O      0.734100000000     0.816850000000     0.706900000000     0          
O        O      0.663600000000     0.836400000000     0.657050000000     0          
O        O      0.710550000000     0.877650000000     0.624800000000     0          
O        O      0.733350000000     0.817500000000     0.595750000000     0          
O        O      0.719550000000     0.876950000000     0.561450000000     0          
O        O      0.709350000000     0.790650000000     0.651100000000     0          
O        O      0.661750000000     0.838250000000     0.545650000000     0          
O        O      0.699700000000     0.871400000000     0.500000000000     0          
T        Si     0.682050000000     0.622200000000     0.690800000000     0          
T        Si     0.682800000000     0.624250000000     0.615550000000     0          
T        Si     0.736450000000     0.860400000000     0.712900000000     0          
T        Si     0.684200000000     0.875400000000     0.656150000000     0          
T        Si     0.735050000000     0.861600000000     0.595500000000     0          
T        Si     0.685250000000     0.874250000000     0.536950000000     0          
T        Si     0.718900000000     0.781100000000     0.688400000000     0          
T        Si     0.718900000000     0.781100000000     0.613800000000     0          
O        O      0.638550000000     0.935650000000     0.902950000000     0          
O        O      0.624250000000     0.972350000000     0.956350000000     0          
O        O      0.659750000000     0.910000000000     0.959450000000     0          
O        O      0.589600000000     0.910400000000     0.944350000000     0          
O        O      0.624650000000     0.973100000000     0.849750000000     0          
O        O      0.654350000000     0.907800000000     0.845600000000     0          
O        O      0.585800000000     0.914200000000     0.863850000000     0          
O        O      0.869400000000     0.958450000000     0.938500000000     0          
O        O      0.880800000000     0.975350000000     0.500000000000     0          
O        O      0.933150000000     0.984100000000     0.956900000000     0          
O        O      0.913600000000     0.913600000000     0.907050000000     0          
O        O      0.872350000000     0.960550000000     0.874800000000     0          
O        O      0.932500000000     0.983350000000     0.845750000000     0          
O        O      0.873050000000     0.969550000000     0.811450000000     0          
O        O      0.959350000000     0.959350000000     0.901100000000     0          
O        O      0.911750000000     0.911750000000     0.795650000000     0          
O        O      0.878600000000     0.949700000000     0.750000000000     0          
T        Si     0.627800000000     0.932050000000     0.940800000000     0          
T        Si     0.625750000000     0.932800000000     0.865550000000     0          
T        Si     0.889600000000     0.986450000000     0.962900000000     0          
T        Si     0.874600000000     0.934200000000     0.906150000000     0          
T        Si     0.888400000000     0.985050000000     0.845500000000     0          
T        Si     0.875750000000     0.935250000000     0.786950000000     0          
T        Si     0.968900000000     0.968900000000     0.938400000000     0          
T        Si     0.968900000000     0.968900000000     0.863800000000     0          
O        O      0.935650000000     0.638550000000     0.902950000000     0          
O        O      0.972350000000     0.624250000000     0.956350000000     0          
O        O      0.910000000000     0.659750000000     0.959450000000     0          
O        O      0.973100000000     0.624650000000     0.849750000000     0          
O        O      0.907800000000     0.654350000000     0.845600000000     0          
O        O      0.958450000000     0.869400000000     0.938500000000     0          
O        O      0.984100000000     0.933150000000     0.956900000000     0          
O        O      0.960550000000     0.872350000000     0.874800000000     0          
O        O      0.983350000000     0.932500000000     0.845750000000     0          
O        O      0.969550000000     0.873050000000     0.811450000000     0          
T        Si     0.932050000000     0.627800000000     0.940800000000     0          
T        Si     0.932800000000     0.625750000000     0.865550000000     0          
T        Si     0.986450000000     0.889600000000     0.962900000000     0          
T        Si     0.934200000000     0.874600000000     0.906150000000     0          
T        Si     0.985050000000     0.888400000000     0.845500000000     0          
T        Si     0.935250000000     0.875750000000     0.786950000000     0          
O        O      0.611450000000     0.685650000000     0.652950000000     0          
O        O      0.625750000000     0.722350000000     0.706350000000     0          
O        O      0.590250000000     0.660000000000     0.709450000000     0          
O        O      0.625350000000     0.723100000000     0.599750000000     0          
O        O      0.595650000000     0.657800000000     0.595600000000     0          
O        O      0.880600000000     0.708450000000     0.688500000000     0          
O        O      0.816850000000     0.734100000000     0.706900000000     0          
O        O      0.877650000000     0.710550000000     0.624800000000     0          
O        O      0.817500000000     0.733350000000     0.595750000000     0          
O        O      0.876950000000     0.719550000000     0.561450000000     0          
T        Si     0.622200000000     0.682050000000     0.690800000000     0          
T        Si     0.624250000000     0.682800000000     0.615550000000     0          
T        Si     0.860400000000     0.736450000000     0.712900000000     0          
T        Si     0.875400000000     0.684200000000     0.656150000000     0          
T        Si     0.861600000000     0.735050000000     0.595500000000     0          
T        Si     0.874250000000     0.685250000000     0.536950000000     0          
O        O      0.564350000000     0.861450000000     0.902950000000     0          
O        O      0.527650000000     0.875750000000     0.956350000000     0          
O        O      0.590000000000     0.840250000000     0.959450000000     0          
O        O      0.526900000000     0.875350000000     0.849750000000     0          
O        O      0.592200000000     0.845650000000     0.845600000000     0          
O        O      0.541550000000     0.630600000000     0.938500000000     0          
O        O      0.515900000000     0.566850000000     0.956900000000     0          
O        O      0.539450000000     0.627650000000     0.874800000000     0          
O        O      0.516650000000     0.567500000000     0.845750000000     0          
O        O      0.530450000000     0.626950000000     0.811450000000     0          
T        Si     0.567950000000     0.872200000000     0.940800000000     0          
T        Si     0.567200000000     0.874250000000     0.865550000000     0          
T        Si     0.513550000000     0.610400000000     0.962900000000     0          
T        Si     0.565800000000     0.625400000000     0.906150000000     0          
T        Si     0.514950000000     0.611600000000     0.845500000000     0          
T        Si     0.564750000000     0.624250000000     0.786950000000     0          
O        O      0.888550000000     0.814350000000     0.652950000000     0          
O        O      0.874250000000     0.777650000000     0.706350000000     0          
O        O      0.909750000000     0.840000000000     0.709450000000     0          
O        O      0.874650000000     0.776900000000     0.599750000000     0          
O        O      0.904350000000     0.842200000000     0.595600000000     0          
O        O      0.619400000000     0.791550000000     0.688500000000     0          
O        O      0.683150000000     0.765900000000     0.706900000000     0          
O        O      0.622350000000     0.789450000000     0.624800000000     0          
O        O      0.682500000000     0.766650000000     0.595750000000     0          
O        O      0.623050000000     0.780450000000     0.561450000000     0          
T        Si     0.877800000000     0.817950000000     0.690800000000     0          
T        Si     0.875750000000     0.817200000000     0.615550000000     0          
T        Si     0.639600000000     0.763550000000     0.712900000000     0          
T        Si     0.624600000000     0.815800000000     0.656150000000     0          
T        Si     0.638400000000     0.764950000000     0.595500000000     0          
T        Si     0.625750000000     0.814750000000     0.536950000000     0          
O        O      0.685650000000     0.611450000000     0.847050000000     0          
O        O      0.722350000000     0.625750000000     0.793650000000     0          
O        O      0.660000000000     0.590250000000     0.790550000000     0          
O        O      0.723100000000     0.625350000000     0.900250000000     0          
O        O      0.657800000000     0.595650000000     0.904400000000     0          
O        O      0.708450000000     0.880600000000     0.811500000000     0          
O        O      0.734100000000     0.816850000000     0.793100000000     0          
O        O      0.710550000000     0.877650000000     0.875200000000     0          
O        O      0.733350000000     0.817500000000     0.904250000000     0          
O        O      0.719550000000     0.876950000000     0.938550000000     0          
T        Si     0.682050000000     0.622200000000     0.809200000000     0          
T        Si     0.682800000000     0.624250000000     0.884450000000     0          
T        Si     0.736450000000     0.860400000000     0.787100000000     0          
T        Si     0.684200000000     0.875400000000     0.843850000000     0          
T        Si     0.735050000000     0.861600000000     0.904500000000     0          
T        Si     0.685250000000     0.874250000000     0.963050000000     0          
O        O      0.638550000000     0.935650000000     0.597050000000     0          
O        O      0.624250000000     0.972350000000     0.543650000000     0          
O        O      0.659750000000     0.910000000000     0.540550000000     0          
O        O      0.624650000000     0.973100000000     0.650250000000     0          
O        O      0.654350000000     0.907800000000     0.654400000000     0          
O        O      0.869400000000     0.958450000000     0.561500000000     0          
O        O      0.933150000000     0.984100000000     0.543100000000     0          
O        O      0.872350000000     0.960550000000     0.625200000000     0          
O        O      0.932500000000     0.983350000000     0.654250000000     0          
O        O      0.873050000000     0.969550000000     0.688550000000     0          
T        Si     0.627800000000     0.932050000000     0.559200000000     0          
T        Si     0.625750000000     0.932800000000     0.634450000000     0          
T        Si     0.889600000000     0.986450000000     0.537100000000     0          
T        Si     0.874600000000     0.934200000000     0.593850000000     0          
T        Si     0.888400000000     0.985050000000     0.654500000000     0          
T        Si     0.875750000000     0.935250000000     0.713050000000     0          
O        O      0.814350000000     0.888550000000     0.847050000000     0          
O        O      0.777650000000     0.874250000000     0.793650000000     0          
O        O      0.840000000000     0.909750000000     0.790550000000     0          
O        O      0.776900000000     0.874650000000     0.900250000000     0          
O        O      0.842200000000     0.904350000000     0.904400000000     0          
O        O      0.791550000000     0.619400000000     0.811500000000     0          
O        O      0.765900000000     0.683150000000     0.793100000000     0          
O        O      0.789450000000     0.622350000000     0.875200000000     0          
O        O      0.766650000000     0.682500000000     0.904250000000     0          
O        O      0.780450000000     0.623050000000     0.938550000000     0          
T        Si     0.817950000000     0.877800000000     0.809200000000     0          
T        Si     0.817200000000     0.875750000000     0.884450000000     0          
T        Si     0.763550000000     0.639600000000     0.787100000000     0          
T        Si     0.815800000000     0.624600000000     0.843850000000     0          
T        Si     0.764950000000     0.638400000000     0.904500000000     0          
T        Si     0.814750000000     0.625750000000     0.963050000000     0          
O        O      0.861450000000     0.564350000000     0.597050000000     0          
O        O      0.875750000000     0.527650000000     0.543650000000     0          
O        O      0.840250000000     0.590000000000     0.540550000000     0          
O        O      0.875350000000     0.526900000000     0.650250000000     0          
O        O      0.845650000000     0.592200000000     0.654400000000     0          
O        O      0.630600000000     0.541550000000     0.561500000000     0          
O        O      0.566850000000     0.515900000000     0.543100000000     0          
O        O      0.627650000000     0.539450000000     0.625200000000     0          
O        O      0.567500000000     0.516650000000     0.654250000000     0          
O        O      0.626950000000     0.530450000000     0.688550000000     0          
T        Si     0.872200000000     0.567950000000     0.559200000000     0          
T        Si     0.874250000000     0.567200000000     0.634450000000     0          
T        Si     0.610400000000     0.513550000000     0.537100000000     0          
T        Si     0.625400000000     0.565800000000     0.593850000000     0          
T        Si     0.611600000000     0.514950000000     0.654500000000     0          
T        Si     0.624250000000     0.564750000000     0.713050000000     0          


