data_zeolite

_audit_creation_method RASPA-1.0
_audit_creation_date 2021-6-6
_audit_author_name ''

_cell_length_a    39.282
_cell_length_b    36.9148
_cell_length_c    33.1311
_cell_angle_alpha 90
_cell_angle_beta  90
_cell_angle_gamma 90
_cell_volume      48043

_symmetry_cell_setting          orthorhombic
_symmetry_space_group_name_Hall 'P 1'
_symmetry_space_group_name_H-M  'P 1'
_symmetry_Int_Tables_number     1

_symmetry_equiv_pos_as_xyz 'x,y,z'

loop_
_atom_site_label
_atom_site_type_symbol
_atom_site_fract_x
_atom_site_fract_y
_atom_site_fract_z
_atom_site_charge
T        Si     0.117085000000     0.059760000000     0.088925000000     0          
T        Si     0.082860000000     0.190470000000     0.089405000000     0          
T        Si     0.068615000000     0.115740000000     0.047735000000     0          
T        Si     0.123610000000     0.000000000000     0.202750000000     0          
T        Si     0.074230000000     0.000000000000     0.131605000000     0          
T        Si     0.040570000000     0.250000000000     0.131265000000     0          
T        Si     0.091515000000     0.250000000000     0.203540000000     0          
T        Si     0.000000000000     0.070790000000     0.046640000000     0          
T        Si     0.000000000000     0.000000000000     0.103310000000     0          
O        O      0.143285000000     0.072120000000     0.123650000000     0          
O        O      0.087130000000     0.035755000000     0.108475000000     0          
O        O      0.100250000000     0.094730000000     0.067880000000     0          
O        O      0.136330000000     0.035780000000     0.055370000000     0          
O        O      0.051825000000     0.214395000000     0.106655000000     0          
O        O      0.104620000000     0.214325000000     0.057965000000     0          
O        O      0.066850000000     0.155745000000     0.066975000000     0          
O        O      0.000000000000     0.058545000000     0.000000000000     0          
O        O      0.033515000000     0.094500000000     0.055875000000     0          
O        O      0.000000000000     0.035575000000     0.075260000000     0          
O        O      0.075250000000     0.119235000000     0.000000000000     0          
O        O      0.058365000000     0.250000000000     0.175015000000     0          
O        O      0.000000000000     0.250000000000     0.137455000000     0          
O        O      0.088835000000     0.000000000000     0.176995000000     0          
O        O      0.114165000000     0.000000000000     0.250000000000     0          
O        O      0.033260000000     0.000000000000     0.131755000000     0          
O        O      0.079530000000     0.250000000000     0.250000000000     0          
T        Si     0.382915000000     0.440240000000     0.088925000000     0          
T        Si     0.417140000000     0.309530000000     0.089405000000     0          
T        Si     0.431385000000     0.384260000000     0.047735000000     0          
T        Si     0.376390000000     0.000000000000     0.202750000000     0          
T        Si     0.425770000000     0.000000000000     0.131605000000     0          
T        Si     0.459430000000     0.250000000000     0.131265000000     0          
T        Si     0.408485000000     0.250000000000     0.203540000000     0          
T        Si     0.000000000000     0.429210000000     0.046640000000     0          
O        O      0.356715000000     0.427880000000     0.123650000000     0          
O        O      0.412870000000     0.464245000000     0.108475000000     0          
O        O      0.399750000000     0.405270000000     0.067880000000     0          
O        O      0.363670000000     0.464220000000     0.055370000000     0          
O        O      0.448175000000     0.285605000000     0.106655000000     0          
O        O      0.395380000000     0.285675000000     0.057965000000     0          
O        O      0.433150000000     0.344255000000     0.066975000000     0          
O        O      0.000000000000     0.441455000000     0.000000000000     0          
O        O      0.466485000000     0.405500000000     0.055875000000     0          
O        O      0.000000000000     0.464425000000     0.075260000000     0          
O        O      0.424750000000     0.380765000000     0.000000000000     0          
O        O      0.441635000000     0.250000000000     0.175015000000     0          
O        O      0.411165000000     0.000000000000     0.176995000000     0          
O        O      0.385835000000     0.000000000000     0.250000000000     0          
O        O      0.466740000000     0.000000000000     0.131755000000     0          
O        O      0.420470000000     0.250000000000     0.250000000000     0          
T        Si     0.117085000000     0.440240000000     0.411075000000     0          
T        Si     0.082860000000     0.309530000000     0.410595000000     0          
T        Si     0.068615000000     0.384260000000     0.452265000000     0          
T        Si     0.123610000000     0.000000000000     0.297250000000     0          
T        Si     0.074230000000     0.000000000000     0.368395000000     0          
T        Si     0.040570000000     0.250000000000     0.368735000000     0          
T        Si     0.091515000000     0.250000000000     0.296460000000     0          
T        Si     0.000000000000     0.429210000000     0.453360000000     0          
T        Si     0.000000000000     0.000000000000     0.396690000000     0          
O        O      0.143285000000     0.427880000000     0.376350000000     0          
O        O      0.087130000000     0.464245000000     0.391525000000     0          
O        O      0.100250000000     0.405270000000     0.432120000000     0          
O        O      0.136330000000     0.464220000000     0.444630000000     0          
O        O      0.051825000000     0.285605000000     0.393345000000     0          
O        O      0.104620000000     0.285675000000     0.442035000000     0          
O        O      0.066850000000     0.344255000000     0.433025000000     0          
O        O      0.033515000000     0.405500000000     0.444125000000     0          
O        O      0.000000000000     0.464425000000     0.424740000000     0          
O        O      0.075250000000     0.380765000000     0.000000000000     0          
O        O      0.058365000000     0.250000000000     0.324985000000     0          
O        O      0.000000000000     0.250000000000     0.362545000000     0          
O        O      0.088835000000     0.000000000000     0.323005000000     0          
O        O      0.033260000000     0.000000000000     0.368245000000     0          
T        Si     0.382915000000     0.059760000000     0.411075000000     0          
T        Si     0.417140000000     0.190470000000     0.410595000000     0          
T        Si     0.431385000000     0.115740000000     0.452265000000     0          
T        Si     0.376390000000     0.000000000000     0.297250000000     0          
T        Si     0.425770000000     0.000000000000     0.368395000000     0          
T        Si     0.459430000000     0.250000000000     0.368735000000     0          
T        Si     0.408485000000     0.250000000000     0.296460000000     0          
T        Si     0.000000000000     0.070790000000     0.453360000000     0          
O        O      0.356715000000     0.072120000000     0.376350000000     0          
O        O      0.412870000000     0.035755000000     0.391525000000     0          
O        O      0.399750000000     0.094730000000     0.432120000000     0          
O        O      0.363670000000     0.035780000000     0.444630000000     0          
O        O      0.448175000000     0.214395000000     0.393345000000     0          
O        O      0.395380000000     0.214325000000     0.442035000000     0          
O        O      0.433150000000     0.155745000000     0.433025000000     0          
O        O      0.466485000000     0.094500000000     0.444125000000     0          
O        O      0.000000000000     0.035575000000     0.424740000000     0          
O        O      0.424750000000     0.119235000000     0.000000000000     0          
O        O      0.441635000000     0.250000000000     0.324985000000     0          
O        O      0.411165000000     0.000000000000     0.323005000000     0          
O        O      0.466740000000     0.000000000000     0.368245000000     0          
T        Si     0.382915000000     0.440240000000     0.411075000000     0          
T        Si     0.417140000000     0.309530000000     0.410595000000     0          
T        Si     0.431385000000     0.384260000000     0.452265000000     0          
O        O      0.356715000000     0.427880000000     0.376350000000     0          
O        O      0.412870000000     0.464245000000     0.391525000000     0          
O        O      0.399750000000     0.405270000000     0.432120000000     0          
O        O      0.363670000000     0.464220000000     0.444630000000     0          
O        O      0.448175000000     0.285605000000     0.393345000000     0          
O        O      0.395380000000     0.285675000000     0.442035000000     0          
O        O      0.433150000000     0.344255000000     0.433025000000     0          
O        O      0.466485000000     0.405500000000     0.444125000000     0          
T        Si     0.117085000000     0.059760000000     0.411075000000     0          
T        Si     0.082860000000     0.190470000000     0.410595000000     0          
T        Si     0.068615000000     0.115740000000     0.452265000000     0          
O        O      0.143285000000     0.072120000000     0.376350000000     0          
O        O      0.087130000000     0.035755000000     0.391525000000     0          
O        O      0.100250000000     0.094730000000     0.432120000000     0          
O        O      0.136330000000     0.035780000000     0.444630000000     0          
O        O      0.051825000000     0.214395000000     0.393345000000     0          
O        O      0.104620000000     0.214325000000     0.442035000000     0          
O        O      0.066850000000     0.155745000000     0.433025000000     0          
O        O      0.033515000000     0.094500000000     0.444125000000     0          
T        Si     0.382915000000     0.059760000000     0.088925000000     0          
T        Si     0.417140000000     0.190470000000     0.089405000000     0          
T        Si     0.431385000000     0.115740000000     0.047735000000     0          
O        O      0.356715000000     0.072120000000     0.123650000000     0          
O        O      0.412870000000     0.035755000000     0.108475000000     0          
O        O      0.399750000000     0.094730000000     0.067880000000     0          
O        O      0.363670000000     0.035780000000     0.055370000000     0          
O        O      0.448175000000     0.214395000000     0.106655000000     0          
O        O      0.395380000000     0.214325000000     0.057965000000     0          
O        O      0.433150000000     0.155745000000     0.066975000000     0          
O        O      0.466485000000     0.094500000000     0.055875000000     0          
T        Si     0.117085000000     0.440240000000     0.088925000000     0          
T        Si     0.082860000000     0.309530000000     0.089405000000     0          
T        Si     0.068615000000     0.384260000000     0.047735000000     0          
O        O      0.143285000000     0.427880000000     0.123650000000     0          
O        O      0.087130000000     0.464245000000     0.108475000000     0          
O        O      0.100250000000     0.405270000000     0.067880000000     0          
O        O      0.136330000000     0.464220000000     0.055370000000     0          
O        O      0.051825000000     0.285605000000     0.106655000000     0          
O        O      0.104620000000     0.285675000000     0.057965000000     0          
O        O      0.066850000000     0.344255000000     0.066975000000     0          
O        O      0.033515000000     0.405500000000     0.055875000000     0          
T        Si     0.367085000000     0.309760000000     0.338925000000     0          
T        Si     0.332860000000     0.440470000000     0.339405000000     0          
T        Si     0.318615000000     0.365740000000     0.297735000000     0          
T        Si     0.373610000000     0.250000000000     0.452750000000     0          
T        Si     0.324230000000     0.250000000000     0.381605000000     0          
T        Si     0.290570000000     0.000000000000     0.381265000000     0          
T        Si     0.341515000000     0.000000000000     0.453540000000     0          
T        Si     0.250000000000     0.320790000000     0.296640000000     0          
T        Si     0.250000000000     0.250000000000     0.353310000000     0          
O        O      0.393285000000     0.322120000000     0.373650000000     0          
O        O      0.337130000000     0.285755000000     0.358475000000     0          
O        O      0.350250000000     0.344730000000     0.317880000000     0          
O        O      0.386330000000     0.285780000000     0.305370000000     0          
O        O      0.301825000000     0.464395000000     0.356655000000     0          
O        O      0.354620000000     0.464325000000     0.307965000000     0          
O        O      0.316850000000     0.405745000000     0.316975000000     0          
O        O      0.250000000000     0.308545000000     0.250000000000     0          
O        O      0.283515000000     0.344500000000     0.305875000000     0          
O        O      0.250000000000     0.285575000000     0.325260000000     0          
O        O      0.325250000000     0.369235000000     0.250000000000     0          
O        O      0.308365000000     0.000000000000     0.425015000000     0          
O        O      0.250000000000     0.000000000000     0.387455000000     0          
O        O      0.338835000000     0.250000000000     0.426995000000     0          
O        O      0.364165000000     0.250000000000     0.000000000000     0          
O        O      0.283260000000     0.250000000000     0.381755000000     0          
O        O      0.329530000000     0.000000000000     0.000000000000     0          
T        Si     0.132915000000     0.190240000000     0.338925000000     0          
T        Si     0.167140000000     0.059530000000     0.339405000000     0          
T        Si     0.181385000000     0.134260000000     0.297735000000     0          
T        Si     0.126390000000     0.250000000000     0.452750000000     0          
T        Si     0.175770000000     0.250000000000     0.381605000000     0          
T        Si     0.209430000000     0.000000000000     0.381265000000     0          
T        Si     0.158485000000     0.000000000000     0.453540000000     0          
T        Si     0.250000000000     0.179210000000     0.296640000000     0          
O        O      0.106715000000     0.177880000000     0.373650000000     0          
O        O      0.162870000000     0.214245000000     0.358475000000     0          
O        O      0.149750000000     0.155270000000     0.317880000000     0          
O        O      0.113670000000     0.214220000000     0.305370000000     0          
O        O      0.198175000000     0.035605000000     0.356655000000     0          
O        O      0.145380000000     0.035675000000     0.307965000000     0          
O        O      0.183150000000     0.094255000000     0.316975000000     0          
O        O      0.250000000000     0.191455000000     0.250000000000     0          
O        O      0.216485000000     0.155500000000     0.305875000000     0          
O        O      0.250000000000     0.214425000000     0.325260000000     0          
O        O      0.174750000000     0.130765000000     0.250000000000     0          
O        O      0.191635000000     0.000000000000     0.425015000000     0          
O        O      0.161165000000     0.250000000000     0.426995000000     0          
O        O      0.135835000000     0.250000000000     0.000000000000     0          
O        O      0.216740000000     0.250000000000     0.381755000000     0          
O        O      0.170470000000     0.000000000000     0.000000000000     0          
T        Si     0.367085000000     0.190240000000     0.161075000000     0          
T        Si     0.332860000000     0.059530000000     0.160595000000     0          
T        Si     0.318615000000     0.134260000000     0.202265000000     0          
T        Si     0.373610000000     0.250000000000     0.047250000000     0          
T        Si     0.324230000000     0.250000000000     0.118395000000     0          
T        Si     0.290570000000     0.000000000000     0.118735000000     0          
T        Si     0.341515000000     0.000000000000     0.046460000000     0          
T        Si     0.250000000000     0.179210000000     0.203360000000     0          
T        Si     0.250000000000     0.250000000000     0.146690000000     0          
O        O      0.393285000000     0.177880000000     0.126350000000     0          
O        O      0.337130000000     0.214245000000     0.141525000000     0          
O        O      0.350250000000     0.155270000000     0.182120000000     0          
O        O      0.386330000000     0.214220000000     0.194630000000     0          
O        O      0.301825000000     0.035605000000     0.143345000000     0          
O        O      0.354620000000     0.035675000000     0.192035000000     0          
O        O      0.316850000000     0.094255000000     0.183025000000     0          
O        O      0.283515000000     0.155500000000     0.194125000000     0          
O        O      0.250000000000     0.214425000000     0.174740000000     0          
O        O      0.325250000000     0.130765000000     0.250000000000     0          
O        O      0.308365000000     0.000000000000     0.074985000000     0          
O        O      0.250000000000     0.000000000000     0.112545000000     0          
O        O      0.338835000000     0.250000000000     0.073005000000     0          
O        O      0.283260000000     0.250000000000     0.118245000000     0          
T        Si     0.132915000000     0.309760000000     0.161075000000     0          
T        Si     0.167140000000     0.440470000000     0.160595000000     0          
T        Si     0.181385000000     0.365740000000     0.202265000000     0          
T        Si     0.126390000000     0.250000000000     0.047250000000     0          
T        Si     0.175770000000     0.250000000000     0.118395000000     0          
T        Si     0.209430000000     0.000000000000     0.118735000000     0          
T        Si     0.158485000000     0.000000000000     0.046460000000     0          
T        Si     0.250000000000     0.320790000000     0.203360000000     0          
O        O      0.106715000000     0.322120000000     0.126350000000     0          
O        O      0.162870000000     0.285755000000     0.141525000000     0          
O        O      0.149750000000     0.344730000000     0.182120000000     0          
O        O      0.113670000000     0.285780000000     0.194630000000     0          
O        O      0.198175000000     0.464395000000     0.143345000000     0          
O        O      0.145380000000     0.464325000000     0.192035000000     0          
O        O      0.183150000000     0.405745000000     0.183025000000     0          
O        O      0.216485000000     0.344500000000     0.194125000000     0          
O        O      0.250000000000     0.285575000000     0.174740000000     0          
O        O      0.174750000000     0.369235000000     0.250000000000     0          
O        O      0.191635000000     0.000000000000     0.074985000000     0          
O        O      0.161165000000     0.250000000000     0.073005000000     0          
O        O      0.216740000000     0.250000000000     0.118245000000     0          
T        Si     0.132915000000     0.190240000000     0.161075000000     0          
T        Si     0.167140000000     0.059530000000     0.160595000000     0          
T        Si     0.181385000000     0.134260000000     0.202265000000     0          
O        O      0.106715000000     0.177880000000     0.126350000000     0          
O        O      0.162870000000     0.214245000000     0.141525000000     0          
O        O      0.149750000000     0.155270000000     0.182120000000     0          
O        O      0.113670000000     0.214220000000     0.194630000000     0          
O        O      0.198175000000     0.035605000000     0.143345000000     0          
O        O      0.145380000000     0.035675000000     0.192035000000     0          
O        O      0.183150000000     0.094255000000     0.183025000000     0          
O        O      0.216485000000     0.155500000000     0.194125000000     0          
T        Si     0.367085000000     0.309760000000     0.161075000000     0          
T        Si     0.332860000000     0.440470000000     0.160595000000     0          
T        Si     0.318615000000     0.365740000000     0.202265000000     0          
O        O      0.393285000000     0.322120000000     0.126350000000     0          
O        O      0.337130000000     0.285755000000     0.141525000000     0          
O        O      0.350250000000     0.344730000000     0.182120000000     0          
O        O      0.386330000000     0.285780000000     0.194630000000     0          
O        O      0.301825000000     0.464395000000     0.143345000000     0          
O        O      0.354620000000     0.464325000000     0.192035000000     0          
O        O      0.316850000000     0.405745000000     0.183025000000     0          
O        O      0.283515000000     0.344500000000     0.194125000000     0          
T        Si     0.132915000000     0.309760000000     0.338925000000     0          
T        Si     0.167140000000     0.440470000000     0.339405000000     0          
T        Si     0.181385000000     0.365740000000     0.297735000000     0          
O        O      0.106715000000     0.322120000000     0.373650000000     0          
O        O      0.162870000000     0.285755000000     0.358475000000     0          
O        O      0.149750000000     0.344730000000     0.317880000000     0          
O        O      0.113670000000     0.285780000000     0.305370000000     0          
O        O      0.198175000000     0.464395000000     0.356655000000     0          
O        O      0.145380000000     0.464325000000     0.307965000000     0          
O        O      0.183150000000     0.405745000000     0.316975000000     0          
O        O      0.216485000000     0.344500000000     0.305875000000     0          
T        Si     0.367085000000     0.190240000000     0.338925000000     0          
T        Si     0.332860000000     0.059530000000     0.339405000000     0          
T        Si     0.318615000000     0.134260000000     0.297735000000     0          
O        O      0.393285000000     0.177880000000     0.373650000000     0          
O        O      0.337130000000     0.214245000000     0.358475000000     0          
O        O      0.350250000000     0.155270000000     0.317880000000     0          
O        O      0.386330000000     0.214220000000     0.305370000000     0          
O        O      0.301825000000     0.035605000000     0.356655000000     0          
O        O      0.354620000000     0.035675000000     0.307965000000     0          
O        O      0.316850000000     0.094255000000     0.316975000000     0          
O        O      0.283515000000     0.155500000000     0.305875000000     0          
T        Si     0.117085000000     0.059760000000     0.588925000000     0          
T        Si     0.082860000000     0.190470000000     0.589405000000     0          
T        Si     0.068615000000     0.115740000000     0.547735000000     0          
T        Si     0.123610000000     0.000000000000     0.702750000000     0          
T        Si     0.074230000000     0.000000000000     0.631605000000     0          
T        Si     0.040570000000     0.250000000000     0.631265000000     0          
T        Si     0.091515000000     0.250000000000     0.703540000000     0          
T        Si     0.000000000000     0.070790000000     0.546640000000     0          
T        Si     0.000000000000     0.000000000000     0.603310000000     0          
O        O      0.143285000000     0.072120000000     0.623650000000     0          
O        O      0.087130000000     0.035755000000     0.608475000000     0          
O        O      0.100250000000     0.094730000000     0.567880000000     0          
O        O      0.136330000000     0.035780000000     0.555370000000     0          
O        O      0.051825000000     0.214395000000     0.606655000000     0          
O        O      0.104620000000     0.214325000000     0.557965000000     0          
O        O      0.066850000000     0.155745000000     0.566975000000     0          
O        O      0.000000000000     0.058545000000     0.500000000000     0          
O        O      0.033515000000     0.094500000000     0.555875000000     0          
O        O      0.000000000000     0.035575000000     0.575260000000     0          
O        O      0.075250000000     0.119235000000     0.500000000000     0          
O        O      0.058365000000     0.250000000000     0.675015000000     0          
O        O      0.000000000000     0.250000000000     0.637455000000     0          
O        O      0.088835000000     0.000000000000     0.676995000000     0          
O        O      0.114165000000     0.000000000000     0.750000000000     0          
O        O      0.033260000000     0.000000000000     0.631755000000     0          
O        O      0.079530000000     0.250000000000     0.750000000000     0          
T        Si     0.382915000000     0.440240000000     0.588925000000     0          
T        Si     0.417140000000     0.309530000000     0.589405000000     0          
T        Si     0.431385000000     0.384260000000     0.547735000000     0          
T        Si     0.376390000000     0.000000000000     0.702750000000     0          
T        Si     0.425770000000     0.000000000000     0.631605000000     0          
T        Si     0.459430000000     0.250000000000     0.631265000000     0          
T        Si     0.408485000000     0.250000000000     0.703540000000     0          
T        Si     0.000000000000     0.429210000000     0.546640000000     0          
O        O      0.356715000000     0.427880000000     0.623650000000     0          
O        O      0.412870000000     0.464245000000     0.608475000000     0          
O        O      0.399750000000     0.405270000000     0.567880000000     0          
O        O      0.363670000000     0.464220000000     0.555370000000     0          
O        O      0.448175000000     0.285605000000     0.606655000000     0          
O        O      0.395380000000     0.285675000000     0.557965000000     0          
O        O      0.433150000000     0.344255000000     0.566975000000     0          
O        O      0.000000000000     0.441455000000     0.500000000000     0          
O        O      0.466485000000     0.405500000000     0.555875000000     0          
O        O      0.000000000000     0.464425000000     0.575260000000     0          
O        O      0.424750000000     0.380765000000     0.500000000000     0          
O        O      0.441635000000     0.250000000000     0.675015000000     0          
O        O      0.411165000000     0.000000000000     0.676995000000     0          
O        O      0.385835000000     0.000000000000     0.750000000000     0          
O        O      0.466740000000     0.000000000000     0.631755000000     0          
O        O      0.420470000000     0.250000000000     0.750000000000     0          
T        Si     0.117085000000     0.440240000000     0.911075000000     0          
T        Si     0.082860000000     0.309530000000     0.910595000000     0          
T        Si     0.068615000000     0.384260000000     0.952265000000     0          
T        Si     0.123610000000     0.000000000000     0.797250000000     0          
T        Si     0.074230000000     0.000000000000     0.868395000000     0          
T        Si     0.040570000000     0.250000000000     0.868735000000     0          
T        Si     0.091515000000     0.250000000000     0.796460000000     0          
T        Si     0.000000000000     0.429210000000     0.953360000000     0          
T        Si     0.000000000000     0.000000000000     0.896690000000     0          
O        O      0.143285000000     0.427880000000     0.876350000000     0          
O        O      0.087130000000     0.464245000000     0.891525000000     0          
O        O      0.100250000000     0.405270000000     0.932120000000     0          
O        O      0.136330000000     0.464220000000     0.944630000000     0          
O        O      0.051825000000     0.285605000000     0.893345000000     0          
O        O      0.104620000000     0.285675000000     0.942035000000     0          
O        O      0.066850000000     0.344255000000     0.933025000000     0          
O        O      0.033515000000     0.405500000000     0.944125000000     0          
O        O      0.000000000000     0.464425000000     0.924740000000     0          
O        O      0.075250000000     0.380765000000     0.500000000000     0          
O        O      0.058365000000     0.250000000000     0.824985000000     0          
O        O      0.000000000000     0.250000000000     0.862545000000     0          
O        O      0.088835000000     0.000000000000     0.823005000000     0          
O        O      0.033260000000     0.000000000000     0.868245000000     0          
T        Si     0.382915000000     0.059760000000     0.911075000000     0          
T        Si     0.417140000000     0.190470000000     0.910595000000     0          
T        Si     0.431385000000     0.115740000000     0.952265000000     0          
T        Si     0.376390000000     0.000000000000     0.797250000000     0          
T        Si     0.425770000000     0.000000000000     0.868395000000     0          
T        Si     0.459430000000     0.250000000000     0.868735000000     0          
T        Si     0.408485000000     0.250000000000     0.796460000000     0          
T        Si     0.000000000000     0.070790000000     0.953360000000     0          
O        O      0.356715000000     0.072120000000     0.876350000000     0          
O        O      0.412870000000     0.035755000000     0.891525000000     0          
O        O      0.399750000000     0.094730000000     0.932120000000     0          
O        O      0.363670000000     0.035780000000     0.944630000000     0          
O        O      0.448175000000     0.214395000000     0.893345000000     0          
O        O      0.395380000000     0.214325000000     0.942035000000     0          
O        O      0.433150000000     0.155745000000     0.933025000000     0          
O        O      0.466485000000     0.094500000000     0.944125000000     0          
O        O      0.000000000000     0.035575000000     0.924740000000     0          
O        O      0.424750000000     0.119235000000     0.500000000000     0          
O        O      0.441635000000     0.250000000000     0.824985000000     0          
O        O      0.411165000000     0.000000000000     0.823005000000     0          
O        O      0.466740000000     0.000000000000     0.868245000000     0          
T        Si     0.382915000000     0.440240000000     0.911075000000     0          
T        Si     0.417140000000     0.309530000000     0.910595000000     0          
T        Si     0.431385000000     0.384260000000     0.952265000000     0          
O        O      0.356715000000     0.427880000000     0.876350000000     0          
O        O      0.412870000000     0.464245000000     0.891525000000     0          
O        O      0.399750000000     0.405270000000     0.932120000000     0          
O        O      0.363670000000     0.464220000000     0.944630000000     0          
O        O      0.448175000000     0.285605000000     0.893345000000     0          
O        O      0.395380000000     0.285675000000     0.942035000000     0          
O        O      0.433150000000     0.344255000000     0.933025000000     0          
O        O      0.466485000000     0.405500000000     0.944125000000     0          
T        Si     0.117085000000     0.059760000000     0.911075000000     0          
T        Si     0.082860000000     0.190470000000     0.910595000000     0          
T        Si     0.068615000000     0.115740000000     0.952265000000     0          
O        O      0.143285000000     0.072120000000     0.876350000000     0          
O        O      0.087130000000     0.035755000000     0.891525000000     0          
O        O      0.100250000000     0.094730000000     0.932120000000     0          
O        O      0.136330000000     0.035780000000     0.944630000000     0          
O        O      0.051825000000     0.214395000000     0.893345000000     0          
O        O      0.104620000000     0.214325000000     0.942035000000     0          
O        O      0.066850000000     0.155745000000     0.933025000000     0          
O        O      0.033515000000     0.094500000000     0.944125000000     0          
T        Si     0.382915000000     0.059760000000     0.588925000000     0          
T        Si     0.417140000000     0.190470000000     0.589405000000     0          
T        Si     0.431385000000     0.115740000000     0.547735000000     0          
O        O      0.356715000000     0.072120000000     0.623650000000     0          
O        O      0.412870000000     0.035755000000     0.608475000000     0          
O        O      0.399750000000     0.094730000000     0.567880000000     0          
O        O      0.363670000000     0.035780000000     0.555370000000     0          
O        O      0.448175000000     0.214395000000     0.606655000000     0          
O        O      0.395380000000     0.214325000000     0.557965000000     0          
O        O      0.433150000000     0.155745000000     0.566975000000     0          
O        O      0.466485000000     0.094500000000     0.555875000000     0          
T        Si     0.117085000000     0.440240000000     0.588925000000     0          
T        Si     0.082860000000     0.309530000000     0.589405000000     0          
T        Si     0.068615000000     0.384260000000     0.547735000000     0          
O        O      0.143285000000     0.427880000000     0.623650000000     0          
O        O      0.087130000000     0.464245000000     0.608475000000     0          
O        O      0.100250000000     0.405270000000     0.567880000000     0          
O        O      0.136330000000     0.464220000000     0.555370000000     0          
O        O      0.051825000000     0.285605000000     0.606655000000     0          
O        O      0.104620000000     0.285675000000     0.557965000000     0          
O        O      0.066850000000     0.344255000000     0.566975000000     0          
O        O      0.033515000000     0.405500000000     0.555875000000     0          
T        Si     0.367085000000     0.309760000000     0.838925000000     0          
T        Si     0.332860000000     0.440470000000     0.839405000000     0          
T        Si     0.318615000000     0.365740000000     0.797735000000     0          
T        Si     0.373610000000     0.250000000000     0.952750000000     0          
T        Si     0.324230000000     0.250000000000     0.881605000000     0          
T        Si     0.290570000000     0.000000000000     0.881265000000     0          
T        Si     0.341515000000     0.000000000000     0.953540000000     0          
T        Si     0.250000000000     0.320790000000     0.796640000000     0          
T        Si     0.250000000000     0.250000000000     0.853310000000     0          
O        O      0.393285000000     0.322120000000     0.873650000000     0          
O        O      0.337130000000     0.285755000000     0.858475000000     0          
O        O      0.350250000000     0.344730000000     0.817880000000     0          
O        O      0.386330000000     0.285780000000     0.805370000000     0          
O        O      0.301825000000     0.464395000000     0.856655000000     0          
O        O      0.354620000000     0.464325000000     0.807965000000     0          
O        O      0.316850000000     0.405745000000     0.816975000000     0          
O        O      0.250000000000     0.308545000000     0.750000000000     0          
O        O      0.283515000000     0.344500000000     0.805875000000     0          
O        O      0.250000000000     0.285575000000     0.825260000000     0          
O        O      0.325250000000     0.369235000000     0.750000000000     0          
O        O      0.308365000000     0.000000000000     0.925015000000     0          
O        O      0.250000000000     0.000000000000     0.887455000000     0          
O        O      0.338835000000     0.250000000000     0.926995000000     0          
O        O      0.364165000000     0.250000000000     0.500000000000     0          
O        O      0.283260000000     0.250000000000     0.881755000000     0          
O        O      0.329530000000     0.000000000000     0.500000000000     0          
T        Si     0.132915000000     0.190240000000     0.838925000000     0          
T        Si     0.167140000000     0.059530000000     0.839405000000     0          
T        Si     0.181385000000     0.134260000000     0.797735000000     0          
T        Si     0.126390000000     0.250000000000     0.952750000000     0          
T        Si     0.175770000000     0.250000000000     0.881605000000     0          
T        Si     0.209430000000     0.000000000000     0.881265000000     0          
T        Si     0.158485000000     0.000000000000     0.953540000000     0          
T        Si     0.250000000000     0.179210000000     0.796640000000     0          
O        O      0.106715000000     0.177880000000     0.873650000000     0          
O        O      0.162870000000     0.214245000000     0.858475000000     0          
O        O      0.149750000000     0.155270000000     0.817880000000     0          
O        O      0.113670000000     0.214220000000     0.805370000000     0          
O        O      0.198175000000     0.035605000000     0.856655000000     0          
O        O      0.145380000000     0.035675000000     0.807965000000     0          
O        O      0.183150000000     0.094255000000     0.816975000000     0          
O        O      0.250000000000     0.191455000000     0.750000000000     0          
O        O      0.216485000000     0.155500000000     0.805875000000     0          
O        O      0.250000000000     0.214425000000     0.825260000000     0          
O        O      0.174750000000     0.130765000000     0.750000000000     0          
O        O      0.191635000000     0.000000000000     0.925015000000     0          
O        O      0.161165000000     0.250000000000     0.926995000000     0          
O        O      0.135835000000     0.250000000000     0.500000000000     0          
O        O      0.216740000000     0.250000000000     0.881755000000     0          
O        O      0.170470000000     0.000000000000     0.500000000000     0          
T        Si     0.367085000000     0.190240000000     0.661075000000     0          
T        Si     0.332860000000     0.059530000000     0.660595000000     0          
T        Si     0.318615000000     0.134260000000     0.702265000000     0          
T        Si     0.373610000000     0.250000000000     0.547250000000     0          
T        Si     0.324230000000     0.250000000000     0.618395000000     0          
T        Si     0.290570000000     0.000000000000     0.618735000000     0          
T        Si     0.341515000000     0.000000000000     0.546460000000     0          
T        Si     0.250000000000     0.179210000000     0.703360000000     0          
T        Si     0.250000000000     0.250000000000     0.646690000000     0          
O        O      0.393285000000     0.177880000000     0.626350000000     0          
O        O      0.337130000000     0.214245000000     0.641525000000     0          
O        O      0.350250000000     0.155270000000     0.682120000000     0          
O        O      0.386330000000     0.214220000000     0.694630000000     0          
O        O      0.301825000000     0.035605000000     0.643345000000     0          
O        O      0.354620000000     0.035675000000     0.692035000000     0          
O        O      0.316850000000     0.094255000000     0.683025000000     0          
O        O      0.283515000000     0.155500000000     0.694125000000     0          
O        O      0.250000000000     0.214425000000     0.674740000000     0          
O        O      0.325250000000     0.130765000000     0.750000000000     0          
O        O      0.308365000000     0.000000000000     0.574985000000     0          
O        O      0.250000000000     0.000000000000     0.612545000000     0          
O        O      0.338835000000     0.250000000000     0.573005000000     0          
O        O      0.283260000000     0.250000000000     0.618245000000     0          
T        Si     0.132915000000     0.309760000000     0.661075000000     0          
T        Si     0.167140000000     0.440470000000     0.660595000000     0          
T        Si     0.181385000000     0.365740000000     0.702265000000     0          
T        Si     0.126390000000     0.250000000000     0.547250000000     0          
T        Si     0.175770000000     0.250000000000     0.618395000000     0          
T        Si     0.209430000000     0.000000000000     0.618735000000     0          
T        Si     0.158485000000     0.000000000000     0.546460000000     0          
T        Si     0.250000000000     0.320790000000     0.703360000000     0          
O        O      0.106715000000     0.322120000000     0.626350000000     0          
O        O      0.162870000000     0.285755000000     0.641525000000     0          
O        O      0.149750000000     0.344730000000     0.682120000000     0          
O        O      0.113670000000     0.285780000000     0.694630000000     0          
O        O      0.198175000000     0.464395000000     0.643345000000     0          
O        O      0.145380000000     0.464325000000     0.692035000000     0          
O        O      0.183150000000     0.405745000000     0.683025000000     0          
O        O      0.216485000000     0.344500000000     0.694125000000     0          
O        O      0.250000000000     0.285575000000     0.674740000000     0          
O        O      0.174750000000     0.369235000000     0.750000000000     0          
O        O      0.191635000000     0.000000000000     0.574985000000     0          
O        O      0.161165000000     0.250000000000     0.573005000000     0          
O        O      0.216740000000     0.250000000000     0.618245000000     0          
T        Si     0.132915000000     0.190240000000     0.661075000000     0          
T        Si     0.167140000000     0.059530000000     0.660595000000     0          
T        Si     0.181385000000     0.134260000000     0.702265000000     0          
O        O      0.106715000000     0.177880000000     0.626350000000     0          
O        O      0.162870000000     0.214245000000     0.641525000000     0          
O        O      0.149750000000     0.155270000000     0.682120000000     0          
O        O      0.113670000000     0.214220000000     0.694630000000     0          
O        O      0.198175000000     0.035605000000     0.643345000000     0          
O        O      0.145380000000     0.035675000000     0.692035000000     0          
O        O      0.183150000000     0.094255000000     0.683025000000     0          
O        O      0.216485000000     0.155500000000     0.694125000000     0          
T        Si     0.367085000000     0.309760000000     0.661075000000     0          
T        Si     0.332860000000     0.440470000000     0.660595000000     0          
T        Si     0.318615000000     0.365740000000     0.702265000000     0          
O        O      0.393285000000     0.322120000000     0.626350000000     0          
O        O      0.337130000000     0.285755000000     0.641525000000     0          
O        O      0.350250000000     0.344730000000     0.682120000000     0          
O        O      0.386330000000     0.285780000000     0.694630000000     0          
O        O      0.301825000000     0.464395000000     0.643345000000     0          
O        O      0.354620000000     0.464325000000     0.692035000000     0          
O        O      0.316850000000     0.405745000000     0.683025000000     0          
O        O      0.283515000000     0.344500000000     0.694125000000     0          
T        Si     0.132915000000     0.309760000000     0.838925000000     0          
T        Si     0.167140000000     0.440470000000     0.839405000000     0          
T        Si     0.181385000000     0.365740000000     0.797735000000     0          
O        O      0.106715000000     0.322120000000     0.873650000000     0          
O        O      0.162870000000     0.285755000000     0.858475000000     0          
O        O      0.149750000000     0.344730000000     0.817880000000     0          
O        O      0.113670000000     0.285780000000     0.805370000000     0          
O        O      0.198175000000     0.464395000000     0.856655000000     0          
O        O      0.145380000000     0.464325000000     0.807965000000     0          
O        O      0.183150000000     0.405745000000     0.816975000000     0          
O        O      0.216485000000     0.344500000000     0.805875000000     0          
T        Si     0.367085000000     0.190240000000     0.838925000000     0          
T        Si     0.332860000000     0.059530000000     0.839405000000     0          
T        Si     0.318615000000     0.134260000000     0.797735000000     0          
O        O      0.393285000000     0.177880000000     0.873650000000     0          
O        O      0.337130000000     0.214245000000     0.858475000000     0          
O        O      0.350250000000     0.155270000000     0.817880000000     0          
O        O      0.386330000000     0.214220000000     0.805370000000     0          
O        O      0.301825000000     0.035605000000     0.856655000000     0          
O        O      0.354620000000     0.035675000000     0.807965000000     0          
O        O      0.316850000000     0.094255000000     0.816975000000     0          
O        O      0.283515000000     0.155500000000     0.805875000000     0          
T        Si     0.117085000000     0.559760000000     0.088925000000     0          
T        Si     0.082860000000     0.690470000000     0.089405000000     0          
T        Si     0.068615000000     0.615740000000     0.047735000000     0          
T        Si     0.123610000000     0.500000000000     0.202750000000     0          
T        Si     0.074230000000     0.500000000000     0.131605000000     0          
T        Si     0.040570000000     0.750000000000     0.131265000000     0          
T        Si     0.091515000000     0.750000000000     0.203540000000     0          
T        Si     0.000000000000     0.570790000000     0.046640000000     0          
T        Si     0.000000000000     0.500000000000     0.103310000000     0          
O        O      0.143285000000     0.572120000000     0.123650000000     0          
O        O      0.087130000000     0.535755000000     0.108475000000     0          
O        O      0.100250000000     0.594730000000     0.067880000000     0          
O        O      0.136330000000     0.535780000000     0.055370000000     0          
O        O      0.051825000000     0.714395000000     0.106655000000     0          
O        O      0.104620000000     0.714325000000     0.057965000000     0          
O        O      0.066850000000     0.655745000000     0.066975000000     0          
O        O      0.000000000000     0.558545000000     0.000000000000     0          
O        O      0.033515000000     0.594500000000     0.055875000000     0          
O        O      0.000000000000     0.535575000000     0.075260000000     0          
O        O      0.075250000000     0.619235000000     0.000000000000     0          
O        O      0.058365000000     0.750000000000     0.175015000000     0          
O        O      0.000000000000     0.750000000000     0.137455000000     0          
O        O      0.088835000000     0.500000000000     0.176995000000     0          
O        O      0.114165000000     0.500000000000     0.250000000000     0          
O        O      0.033260000000     0.500000000000     0.131755000000     0          
O        O      0.079530000000     0.750000000000     0.250000000000     0          
T        Si     0.382915000000     0.940240000000     0.088925000000     0          
T        Si     0.417140000000     0.809530000000     0.089405000000     0          
T        Si     0.431385000000     0.884260000000     0.047735000000     0          
T        Si     0.376390000000     0.500000000000     0.202750000000     0          
T        Si     0.425770000000     0.500000000000     0.131605000000     0          
T        Si     0.459430000000     0.750000000000     0.131265000000     0          
T        Si     0.408485000000     0.750000000000     0.203540000000     0          
T        Si     0.000000000000     0.929210000000     0.046640000000     0          
O        O      0.356715000000     0.927880000000     0.123650000000     0          
O        O      0.412870000000     0.964245000000     0.108475000000     0          
O        O      0.399750000000     0.905270000000     0.067880000000     0          
O        O      0.363670000000     0.964220000000     0.055370000000     0          
O        O      0.448175000000     0.785605000000     0.106655000000     0          
O        O      0.395380000000     0.785675000000     0.057965000000     0          
O        O      0.433150000000     0.844255000000     0.066975000000     0          
O        O      0.000000000000     0.941455000000     0.000000000000     0          
O        O      0.466485000000     0.905500000000     0.055875000000     0          
O        O      0.000000000000     0.964425000000     0.075260000000     0          
O        O      0.424750000000     0.880765000000     0.000000000000     0          
O        O      0.441635000000     0.750000000000     0.175015000000     0          
O        O      0.411165000000     0.500000000000     0.176995000000     0          
O        O      0.385835000000     0.500000000000     0.250000000000     0          
O        O      0.466740000000     0.500000000000     0.131755000000     0          
O        O      0.420470000000     0.750000000000     0.250000000000     0          
T        Si     0.117085000000     0.940240000000     0.411075000000     0          
T        Si     0.082860000000     0.809530000000     0.410595000000     0          
T        Si     0.068615000000     0.884260000000     0.452265000000     0          
T        Si     0.123610000000     0.500000000000     0.297250000000     0          
T        Si     0.074230000000     0.500000000000     0.368395000000     0          
T        Si     0.040570000000     0.750000000000     0.368735000000     0          
T        Si     0.091515000000     0.750000000000     0.296460000000     0          
T        Si     0.000000000000     0.929210000000     0.453360000000     0          
T        Si     0.000000000000     0.500000000000     0.396690000000     0          
O        O      0.143285000000     0.927880000000     0.376350000000     0          
O        O      0.087130000000     0.964245000000     0.391525000000     0          
O        O      0.100250000000     0.905270000000     0.432120000000     0          
O        O      0.136330000000     0.964220000000     0.444630000000     0          
O        O      0.051825000000     0.785605000000     0.393345000000     0          
O        O      0.104620000000     0.785675000000     0.442035000000     0          
O        O      0.066850000000     0.844255000000     0.433025000000     0          
O        O      0.033515000000     0.905500000000     0.444125000000     0          
O        O      0.000000000000     0.964425000000     0.424740000000     0          
O        O      0.075250000000     0.880765000000     0.000000000000     0          
O        O      0.058365000000     0.750000000000     0.324985000000     0          
O        O      0.000000000000     0.750000000000     0.362545000000     0          
O        O      0.088835000000     0.500000000000     0.323005000000     0          
O        O      0.033260000000     0.500000000000     0.368245000000     0          
T        Si     0.382915000000     0.559760000000     0.411075000000     0          
T        Si     0.417140000000     0.690470000000     0.410595000000     0          
T        Si     0.431385000000     0.615740000000     0.452265000000     0          
T        Si     0.376390000000     0.500000000000     0.297250000000     0          
T        Si     0.425770000000     0.500000000000     0.368395000000     0          
T        Si     0.459430000000     0.750000000000     0.368735000000     0          
T        Si     0.408485000000     0.750000000000     0.296460000000     0          
T        Si     0.000000000000     0.570790000000     0.453360000000     0          
O        O      0.356715000000     0.572120000000     0.376350000000     0          
O        O      0.412870000000     0.535755000000     0.391525000000     0          
O        O      0.399750000000     0.594730000000     0.432120000000     0          
O        O      0.363670000000     0.535780000000     0.444630000000     0          
O        O      0.448175000000     0.714395000000     0.393345000000     0          
O        O      0.395380000000     0.714325000000     0.442035000000     0          
O        O      0.433150000000     0.655745000000     0.433025000000     0          
O        O      0.466485000000     0.594500000000     0.444125000000     0          
O        O      0.000000000000     0.535575000000     0.424740000000     0          
O        O      0.424750000000     0.619235000000     0.000000000000     0          
O        O      0.441635000000     0.750000000000     0.324985000000     0          
O        O      0.411165000000     0.500000000000     0.323005000000     0          
O        O      0.466740000000     0.500000000000     0.368245000000     0          
T        Si     0.382915000000     0.940240000000     0.411075000000     0          
T        Si     0.417140000000     0.809530000000     0.410595000000     0          
T        Si     0.431385000000     0.884260000000     0.452265000000     0          
O        O      0.356715000000     0.927880000000     0.376350000000     0          
O        O      0.412870000000     0.964245000000     0.391525000000     0          
O        O      0.399750000000     0.905270000000     0.432120000000     0          
O        O      0.363670000000     0.964220000000     0.444630000000     0          
O        O      0.448175000000     0.785605000000     0.393345000000     0          
O        O      0.395380000000     0.785675000000     0.442035000000     0          
O        O      0.433150000000     0.844255000000     0.433025000000     0          
O        O      0.466485000000     0.905500000000     0.444125000000     0          
T        Si     0.117085000000     0.559760000000     0.411075000000     0          
T        Si     0.082860000000     0.690470000000     0.410595000000     0          
T        Si     0.068615000000     0.615740000000     0.452265000000     0          
O        O      0.143285000000     0.572120000000     0.376350000000     0          
O        O      0.087130000000     0.535755000000     0.391525000000     0          
O        O      0.100250000000     0.594730000000     0.432120000000     0          
O        O      0.136330000000     0.535780000000     0.444630000000     0          
O        O      0.051825000000     0.714395000000     0.393345000000     0          
O        O      0.104620000000     0.714325000000     0.442035000000     0          
O        O      0.066850000000     0.655745000000     0.433025000000     0          
O        O      0.033515000000     0.594500000000     0.444125000000     0          
T        Si     0.382915000000     0.559760000000     0.088925000000     0          
T        Si     0.417140000000     0.690470000000     0.089405000000     0          
T        Si     0.431385000000     0.615740000000     0.047735000000     0          
O        O      0.356715000000     0.572120000000     0.123650000000     0          
O        O      0.412870000000     0.535755000000     0.108475000000     0          
O        O      0.399750000000     0.594730000000     0.067880000000     0          
O        O      0.363670000000     0.535780000000     0.055370000000     0          
O        O      0.448175000000     0.714395000000     0.106655000000     0          
O        O      0.395380000000     0.714325000000     0.057965000000     0          
O        O      0.433150000000     0.655745000000     0.066975000000     0          
O        O      0.466485000000     0.594500000000     0.055875000000     0          
T        Si     0.117085000000     0.940240000000     0.088925000000     0          
T        Si     0.082860000000     0.809530000000     0.089405000000     0          
T        Si     0.068615000000     0.884260000000     0.047735000000     0          
O        O      0.143285000000     0.927880000000     0.123650000000     0          
O        O      0.087130000000     0.964245000000     0.108475000000     0          
O        O      0.100250000000     0.905270000000     0.067880000000     0          
O        O      0.136330000000     0.964220000000     0.055370000000     0          
O        O      0.051825000000     0.785605000000     0.106655000000     0          
O        O      0.104620000000     0.785675000000     0.057965000000     0          
O        O      0.066850000000     0.844255000000     0.066975000000     0          
O        O      0.033515000000     0.905500000000     0.055875000000     0          
T        Si     0.367085000000     0.809760000000     0.338925000000     0          
T        Si     0.332860000000     0.940470000000     0.339405000000     0          
T        Si     0.318615000000     0.865740000000     0.297735000000     0          
T        Si     0.373610000000     0.750000000000     0.452750000000     0          
T        Si     0.324230000000     0.750000000000     0.381605000000     0          
T        Si     0.290570000000     0.500000000000     0.381265000000     0          
T        Si     0.341515000000     0.500000000000     0.453540000000     0          
T        Si     0.250000000000     0.820790000000     0.296640000000     0          
T        Si     0.250000000000     0.750000000000     0.353310000000     0          
O        O      0.393285000000     0.822120000000     0.373650000000     0          
O        O      0.337130000000     0.785755000000     0.358475000000     0          
O        O      0.350250000000     0.844730000000     0.317880000000     0          
O        O      0.386330000000     0.785780000000     0.305370000000     0          
O        O      0.301825000000     0.964395000000     0.356655000000     0          
O        O      0.354620000000     0.964325000000     0.307965000000     0          
O        O      0.316850000000     0.905745000000     0.316975000000     0          
O        O      0.250000000000     0.808545000000     0.250000000000     0          
O        O      0.283515000000     0.844500000000     0.305875000000     0          
O        O      0.250000000000     0.785575000000     0.325260000000     0          
O        O      0.325250000000     0.869235000000     0.250000000000     0          
O        O      0.308365000000     0.500000000000     0.425015000000     0          
O        O      0.250000000000     0.500000000000     0.387455000000     0          
O        O      0.338835000000     0.750000000000     0.426995000000     0          
O        O      0.364165000000     0.750000000000     0.000000000000     0          
O        O      0.283260000000     0.750000000000     0.381755000000     0          
O        O      0.329530000000     0.500000000000     0.000000000000     0          
T        Si     0.132915000000     0.690240000000     0.338925000000     0          
T        Si     0.167140000000     0.559530000000     0.339405000000     0          
T        Si     0.181385000000     0.634260000000     0.297735000000     0          
T        Si     0.126390000000     0.750000000000     0.452750000000     0          
T        Si     0.175770000000     0.750000000000     0.381605000000     0          
T        Si     0.209430000000     0.500000000000     0.381265000000     0          
T        Si     0.158485000000     0.500000000000     0.453540000000     0          
T        Si     0.250000000000     0.679210000000     0.296640000000     0          
O        O      0.106715000000     0.677880000000     0.373650000000     0          
O        O      0.162870000000     0.714245000000     0.358475000000     0          
O        O      0.149750000000     0.655270000000     0.317880000000     0          
O        O      0.113670000000     0.714220000000     0.305370000000     0          
O        O      0.198175000000     0.535605000000     0.356655000000     0          
O        O      0.145380000000     0.535675000000     0.307965000000     0          
O        O      0.183150000000     0.594255000000     0.316975000000     0          
O        O      0.250000000000     0.691455000000     0.250000000000     0          
O        O      0.216485000000     0.655500000000     0.305875000000     0          
O        O      0.250000000000     0.714425000000     0.325260000000     0          
O        O      0.174750000000     0.630765000000     0.250000000000     0          
O        O      0.191635000000     0.500000000000     0.425015000000     0          
O        O      0.161165000000     0.750000000000     0.426995000000     0          
O        O      0.135835000000     0.750000000000     0.000000000000     0          
O        O      0.216740000000     0.750000000000     0.381755000000     0          
O        O      0.170470000000     0.500000000000     0.000000000000     0          
T        Si     0.367085000000     0.690240000000     0.161075000000     0          
T        Si     0.332860000000     0.559530000000     0.160595000000     0          
T        Si     0.318615000000     0.634260000000     0.202265000000     0          
T        Si     0.373610000000     0.750000000000     0.047250000000     0          
T        Si     0.324230000000     0.750000000000     0.118395000000     0          
T        Si     0.290570000000     0.500000000000     0.118735000000     0          
T        Si     0.341515000000     0.500000000000     0.046460000000     0          
T        Si     0.250000000000     0.679210000000     0.203360000000     0          
T        Si     0.250000000000     0.750000000000     0.146690000000     0          
O        O      0.393285000000     0.677880000000     0.126350000000     0          
O        O      0.337130000000     0.714245000000     0.141525000000     0          
O        O      0.350250000000     0.655270000000     0.182120000000     0          
O        O      0.386330000000     0.714220000000     0.194630000000     0          
O        O      0.301825000000     0.535605000000     0.143345000000     0          
O        O      0.354620000000     0.535675000000     0.192035000000     0          
O        O      0.316850000000     0.594255000000     0.183025000000     0          
O        O      0.283515000000     0.655500000000     0.194125000000     0          
O        O      0.250000000000     0.714425000000     0.174740000000     0          
O        O      0.325250000000     0.630765000000     0.250000000000     0          
O        O      0.308365000000     0.500000000000     0.074985000000     0          
O        O      0.250000000000     0.500000000000     0.112545000000     0          
O        O      0.338835000000     0.750000000000     0.073005000000     0          
O        O      0.283260000000     0.750000000000     0.118245000000     0          
T        Si     0.132915000000     0.809760000000     0.161075000000     0          
T        Si     0.167140000000     0.940470000000     0.160595000000     0          
T        Si     0.181385000000     0.865740000000     0.202265000000     0          
T        Si     0.126390000000     0.750000000000     0.047250000000     0          
T        Si     0.175770000000     0.750000000000     0.118395000000     0          
T        Si     0.209430000000     0.500000000000     0.118735000000     0          
T        Si     0.158485000000     0.500000000000     0.046460000000     0          
T        Si     0.250000000000     0.820790000000     0.203360000000     0          
O        O      0.106715000000     0.822120000000     0.126350000000     0          
O        O      0.162870000000     0.785755000000     0.141525000000     0          
O        O      0.149750000000     0.844730000000     0.182120000000     0          
O        O      0.113670000000     0.785780000000     0.194630000000     0          
O        O      0.198175000000     0.964395000000     0.143345000000     0          
O        O      0.145380000000     0.964325000000     0.192035000000     0          
O        O      0.183150000000     0.905745000000     0.183025000000     0          
O        O      0.216485000000     0.844500000000     0.194125000000     0          
O        O      0.250000000000     0.785575000000     0.174740000000     0          
O        O      0.174750000000     0.869235000000     0.250000000000     0          
O        O      0.191635000000     0.500000000000     0.074985000000     0          
O        O      0.161165000000     0.750000000000     0.073005000000     0          
O        O      0.216740000000     0.750000000000     0.118245000000     0          
T        Si     0.132915000000     0.690240000000     0.161075000000     0          
T        Si     0.167140000000     0.559530000000     0.160595000000     0          
T        Si     0.181385000000     0.634260000000     0.202265000000     0          
O        O      0.106715000000     0.677880000000     0.126350000000     0          
O        O      0.162870000000     0.714245000000     0.141525000000     0          
O        O      0.149750000000     0.655270000000     0.182120000000     0          
O        O      0.113670000000     0.714220000000     0.194630000000     0          
O        O      0.198175000000     0.535605000000     0.143345000000     0          
O        O      0.145380000000     0.535675000000     0.192035000000     0          
O        O      0.183150000000     0.594255000000     0.183025000000     0          
O        O      0.216485000000     0.655500000000     0.194125000000     0          
T        Si     0.367085000000     0.809760000000     0.161075000000     0          
T        Si     0.332860000000     0.940470000000     0.160595000000     0          
T        Si     0.318615000000     0.865740000000     0.202265000000     0          
O        O      0.393285000000     0.822120000000     0.126350000000     0          
O        O      0.337130000000     0.785755000000     0.141525000000     0          
O        O      0.350250000000     0.844730000000     0.182120000000     0          
O        O      0.386330000000     0.785780000000     0.194630000000     0          
O        O      0.301825000000     0.964395000000     0.143345000000     0          
O        O      0.354620000000     0.964325000000     0.192035000000     0          
O        O      0.316850000000     0.905745000000     0.183025000000     0          
O        O      0.283515000000     0.844500000000     0.194125000000     0          
T        Si     0.132915000000     0.809760000000     0.338925000000     0          
T        Si     0.167140000000     0.940470000000     0.339405000000     0          
T        Si     0.181385000000     0.865740000000     0.297735000000     0          
O        O      0.106715000000     0.822120000000     0.373650000000     0          
O        O      0.162870000000     0.785755000000     0.358475000000     0          
O        O      0.149750000000     0.844730000000     0.317880000000     0          
O        O      0.113670000000     0.785780000000     0.305370000000     0          
O        O      0.198175000000     0.964395000000     0.356655000000     0          
O        O      0.145380000000     0.964325000000     0.307965000000     0          
O        O      0.183150000000     0.905745000000     0.316975000000     0          
O        O      0.216485000000     0.844500000000     0.305875000000     0          
T        Si     0.367085000000     0.690240000000     0.338925000000     0          
T        Si     0.332860000000     0.559530000000     0.339405000000     0          
T        Si     0.318615000000     0.634260000000     0.297735000000     0          
O        O      0.393285000000     0.677880000000     0.373650000000     0          
O        O      0.337130000000     0.714245000000     0.358475000000     0          
O        O      0.350250000000     0.655270000000     0.317880000000     0          
O        O      0.386330000000     0.714220000000     0.305370000000     0          
O        O      0.301825000000     0.535605000000     0.356655000000     0          
O        O      0.354620000000     0.535675000000     0.307965000000     0          
O        O      0.316850000000     0.594255000000     0.316975000000     0          
O        O      0.283515000000     0.655500000000     0.305875000000     0          
T        Si     0.117085000000     0.559760000000     0.588925000000     0          
T        Si     0.082860000000     0.690470000000     0.589405000000     0          
T        Si     0.068615000000     0.615740000000     0.547735000000     0          
T        Si     0.123610000000     0.500000000000     0.702750000000     0          
T        Si     0.074230000000     0.500000000000     0.631605000000     0          
T        Si     0.040570000000     0.750000000000     0.631265000000     0          
T        Si     0.091515000000     0.750000000000     0.703540000000     0          
T        Si     0.000000000000     0.570790000000     0.546640000000     0          
T        Si     0.000000000000     0.500000000000     0.603310000000     0          
O        O      0.143285000000     0.572120000000     0.623650000000     0          
O        O      0.087130000000     0.535755000000     0.608475000000     0          
O        O      0.100250000000     0.594730000000     0.567880000000     0          
O        O      0.136330000000     0.535780000000     0.555370000000     0          
O        O      0.051825000000     0.714395000000     0.606655000000     0          
O        O      0.104620000000     0.714325000000     0.557965000000     0          
O        O      0.066850000000     0.655745000000     0.566975000000     0          
O        O      0.000000000000     0.558545000000     0.500000000000     0          
O        O      0.033515000000     0.594500000000     0.555875000000     0          
O        O      0.000000000000     0.535575000000     0.575260000000     0          
O        O      0.075250000000     0.619235000000     0.500000000000     0          
O        O      0.058365000000     0.750000000000     0.675015000000     0          
O        O      0.000000000000     0.750000000000     0.637455000000     0          
O        O      0.088835000000     0.500000000000     0.676995000000     0          
O        O      0.114165000000     0.500000000000     0.750000000000     0          
O        O      0.033260000000     0.500000000000     0.631755000000     0          
O        O      0.079530000000     0.750000000000     0.750000000000     0          
T        Si     0.382915000000     0.940240000000     0.588925000000     0          
T        Si     0.417140000000     0.809530000000     0.589405000000     0          
T        Si     0.431385000000     0.884260000000     0.547735000000     0          
T        Si     0.376390000000     0.500000000000     0.702750000000     0          
T        Si     0.425770000000     0.500000000000     0.631605000000     0          
T        Si     0.459430000000     0.750000000000     0.631265000000     0          
T        Si     0.408485000000     0.750000000000     0.703540000000     0          
T        Si     0.000000000000     0.929210000000     0.546640000000     0          
O        O      0.356715000000     0.927880000000     0.623650000000     0          
O        O      0.412870000000     0.964245000000     0.608475000000     0          
O        O      0.399750000000     0.905270000000     0.567880000000     0          
O        O      0.363670000000     0.964220000000     0.555370000000     0          
O        O      0.448175000000     0.785605000000     0.606655000000     0          
O        O      0.395380000000     0.785675000000     0.557965000000     0          
O        O      0.433150000000     0.844255000000     0.566975000000     0          
O        O      0.000000000000     0.941455000000     0.500000000000     0          
O        O      0.466485000000     0.905500000000     0.555875000000     0          
O        O      0.000000000000     0.964425000000     0.575260000000     0          
O        O      0.424750000000     0.880765000000     0.500000000000     0          
O        O      0.441635000000     0.750000000000     0.675015000000     0          
O        O      0.411165000000     0.500000000000     0.676995000000     0          
O        O      0.385835000000     0.500000000000     0.750000000000     0          
O        O      0.466740000000     0.500000000000     0.631755000000     0          
O        O      0.420470000000     0.750000000000     0.750000000000     0          
T        Si     0.117085000000     0.940240000000     0.911075000000     0          
T        Si     0.082860000000     0.809530000000     0.910595000000     0          
T        Si     0.068615000000     0.884260000000     0.952265000000     0          
T        Si     0.123610000000     0.500000000000     0.797250000000     0          
T        Si     0.074230000000     0.500000000000     0.868395000000     0          
T        Si     0.040570000000     0.750000000000     0.868735000000     0          
T        Si     0.091515000000     0.750000000000     0.796460000000     0          
T        Si     0.000000000000     0.929210000000     0.953360000000     0          
T        Si     0.000000000000     0.500000000000     0.896690000000     0          
O        O      0.143285000000     0.927880000000     0.876350000000     0          
O        O      0.087130000000     0.964245000000     0.891525000000     0          
O        O      0.100250000000     0.905270000000     0.932120000000     0          
O        O      0.136330000000     0.964220000000     0.944630000000     0          
O        O      0.051825000000     0.785605000000     0.893345000000     0          
O        O      0.104620000000     0.785675000000     0.942035000000     0          
O        O      0.066850000000     0.844255000000     0.933025000000     0          
O        O      0.033515000000     0.905500000000     0.944125000000     0          
O        O      0.000000000000     0.964425000000     0.924740000000     0          
O        O      0.075250000000     0.880765000000     0.500000000000     0          
O        O      0.058365000000     0.750000000000     0.824985000000     0          
O        O      0.000000000000     0.750000000000     0.862545000000     0          
O        O      0.088835000000     0.500000000000     0.823005000000     0          
O        O      0.033260000000     0.500000000000     0.868245000000     0          
T        Si     0.382915000000     0.559760000000     0.911075000000     0          
T        Si     0.417140000000     0.690470000000     0.910595000000     0          
T        Si     0.431385000000     0.615740000000     0.952265000000     0          
T        Si     0.376390000000     0.500000000000     0.797250000000     0          
T        Si     0.425770000000     0.500000000000     0.868395000000     0          
T        Si     0.459430000000     0.750000000000     0.868735000000     0          
T        Si     0.408485000000     0.750000000000     0.796460000000     0          
T        Si     0.000000000000     0.570790000000     0.953360000000     0          
O        O      0.356715000000     0.572120000000     0.876350000000     0          
O        O      0.412870000000     0.535755000000     0.891525000000     0          
O        O      0.399750000000     0.594730000000     0.932120000000     0          
O        O      0.363670000000     0.535780000000     0.944630000000     0          
O        O      0.448175000000     0.714395000000     0.893345000000     0          
O        O      0.395380000000     0.714325000000     0.942035000000     0          
O        O      0.433150000000     0.655745000000     0.933025000000     0          
O        O      0.466485000000     0.594500000000     0.944125000000     0          
O        O      0.000000000000     0.535575000000     0.924740000000     0          
O        O      0.424750000000     0.619235000000     0.500000000000     0          
O        O      0.441635000000     0.750000000000     0.824985000000     0          
O        O      0.411165000000     0.500000000000     0.823005000000     0          
O        O      0.466740000000     0.500000000000     0.868245000000     0          
T        Si     0.382915000000     0.940240000000     0.911075000000     0          
T        Si     0.417140000000     0.809530000000     0.910595000000     0          
T        Si     0.431385000000     0.884260000000     0.952265000000     0          
O        O      0.356715000000     0.927880000000     0.876350000000     0          
O        O      0.412870000000     0.964245000000     0.891525000000     0          
O        O      0.399750000000     0.905270000000     0.932120000000     0          
O        O      0.363670000000     0.964220000000     0.944630000000     0          
O        O      0.448175000000     0.785605000000     0.893345000000     0          
O        O      0.395380000000     0.785675000000     0.942035000000     0          
O        O      0.433150000000     0.844255000000     0.933025000000     0          
O        O      0.466485000000     0.905500000000     0.944125000000     0          
T        Si     0.117085000000     0.559760000000     0.911075000000     0          
T        Si     0.082860000000     0.690470000000     0.910595000000     0          
T        Si     0.068615000000     0.615740000000     0.952265000000     0          
O        O      0.143285000000     0.572120000000     0.876350000000     0          
O        O      0.087130000000     0.535755000000     0.891525000000     0          
O        O      0.100250000000     0.594730000000     0.932120000000     0          
O        O      0.136330000000     0.535780000000     0.944630000000     0          
O        O      0.051825000000     0.714395000000     0.893345000000     0          
O        O      0.104620000000     0.714325000000     0.942035000000     0          
O        O      0.066850000000     0.655745000000     0.933025000000     0          
O        O      0.033515000000     0.594500000000     0.944125000000     0          
T        Si     0.382915000000     0.559760000000     0.588925000000     0          
T        Si     0.417140000000     0.690470000000     0.589405000000     0          
T        Si     0.431385000000     0.615740000000     0.547735000000     0          
O        O      0.356715000000     0.572120000000     0.623650000000     0          
O        O      0.412870000000     0.535755000000     0.608475000000     0          
O        O      0.399750000000     0.594730000000     0.567880000000     0          
O        O      0.363670000000     0.535780000000     0.555370000000     0          
O        O      0.448175000000     0.714395000000     0.606655000000     0          
O        O      0.395380000000     0.714325000000     0.557965000000     0          
O        O      0.433150000000     0.655745000000     0.566975000000     0          
O        O      0.466485000000     0.594500000000     0.555875000000     0          
T        Si     0.117085000000     0.940240000000     0.588925000000     0          
T        Si     0.082860000000     0.809530000000     0.589405000000     0          
T        Si     0.068615000000     0.884260000000     0.547735000000     0          
O        O      0.143285000000     0.927880000000     0.623650000000     0          
O        O      0.087130000000     0.964245000000     0.608475000000     0          
O        O      0.100250000000     0.905270000000     0.567880000000     0          
O        O      0.136330000000     0.964220000000     0.555370000000     0          
O        O      0.051825000000     0.785605000000     0.606655000000     0          
O        O      0.104620000000     0.785675000000     0.557965000000     0          
O        O      0.066850000000     0.844255000000     0.566975000000     0          
O        O      0.033515000000     0.905500000000     0.555875000000     0          
T        Si     0.367085000000     0.809760000000     0.838925000000     0          
T        Si     0.332860000000     0.940470000000     0.839405000000     0          
T        Si     0.318615000000     0.865740000000     0.797735000000     0          
T        Si     0.373610000000     0.750000000000     0.952750000000     0          
T        Si     0.324230000000     0.750000000000     0.881605000000     0          
T        Si     0.290570000000     0.500000000000     0.881265000000     0          
T        Si     0.341515000000     0.500000000000     0.953540000000     0          
T        Si     0.250000000000     0.820790000000     0.796640000000     0          
T        Si     0.250000000000     0.750000000000     0.853310000000     0          
O        O      0.393285000000     0.822120000000     0.873650000000     0          
O        O      0.337130000000     0.785755000000     0.858475000000     0          
O        O      0.350250000000     0.844730000000     0.817880000000     0          
O        O      0.386330000000     0.785780000000     0.805370000000     0          
O        O      0.301825000000     0.964395000000     0.856655000000     0          
O        O      0.354620000000     0.964325000000     0.807965000000     0          
O        O      0.316850000000     0.905745000000     0.816975000000     0          
O        O      0.250000000000     0.808545000000     0.750000000000     0          
O        O      0.283515000000     0.844500000000     0.805875000000     0          
O        O      0.250000000000     0.785575000000     0.825260000000     0          
O        O      0.325250000000     0.869235000000     0.750000000000     0          
O        O      0.308365000000     0.500000000000     0.925015000000     0          
O        O      0.250000000000     0.500000000000     0.887455000000     0          
O        O      0.338835000000     0.750000000000     0.926995000000     0          
O        O      0.364165000000     0.750000000000     0.500000000000     0          
O        O      0.283260000000     0.750000000000     0.881755000000     0          
O        O      0.329530000000     0.500000000000     0.500000000000     0          
T        Si     0.132915000000     0.690240000000     0.838925000000     0          
T        Si     0.167140000000     0.559530000000     0.839405000000     0          
T        Si     0.181385000000     0.634260000000     0.797735000000     0          
T        Si     0.126390000000     0.750000000000     0.952750000000     0          
T        Si     0.175770000000     0.750000000000     0.881605000000     0          
T        Si     0.209430000000     0.500000000000     0.881265000000     0          
T        Si     0.158485000000     0.500000000000     0.953540000000     0          
T        Si     0.250000000000     0.679210000000     0.796640000000     0          
O        O      0.106715000000     0.677880000000     0.873650000000     0          
O        O      0.162870000000     0.714245000000     0.858475000000     0          
O        O      0.149750000000     0.655270000000     0.817880000000     0          
O        O      0.113670000000     0.714220000000     0.805370000000     0          
O        O      0.198175000000     0.535605000000     0.856655000000     0          
O        O      0.145380000000     0.535675000000     0.807965000000     0          
O        O      0.183150000000     0.594255000000     0.816975000000     0          
O        O      0.250000000000     0.691455000000     0.750000000000     0          
O        O      0.216485000000     0.655500000000     0.805875000000     0          
O        O      0.250000000000     0.714425000000     0.825260000000     0          
O        O      0.174750000000     0.630765000000     0.750000000000     0          
O        O      0.191635000000     0.500000000000     0.925015000000     0          
O        O      0.161165000000     0.750000000000     0.926995000000     0          
O        O      0.135835000000     0.750000000000     0.500000000000     0          
O        O      0.216740000000     0.750000000000     0.881755000000     0          
O        O      0.170470000000     0.500000000000     0.500000000000     0          
T        Si     0.367085000000     0.690240000000     0.661075000000     0          
T        Si     0.332860000000     0.559530000000     0.660595000000     0          
T        Si     0.318615000000     0.634260000000     0.702265000000     0          
T        Si     0.373610000000     0.750000000000     0.547250000000     0          
T        Si     0.324230000000     0.750000000000     0.618395000000     0          
T        Si     0.290570000000     0.500000000000     0.618735000000     0          
T        Si     0.341515000000     0.500000000000     0.546460000000     0          
T        Si     0.250000000000     0.679210000000     0.703360000000     0          
T        Si     0.250000000000     0.750000000000     0.646690000000     0          
O        O      0.393285000000     0.677880000000     0.626350000000     0          
O        O      0.337130000000     0.714245000000     0.641525000000     0          
O        O      0.350250000000     0.655270000000     0.682120000000     0          
O        O      0.386330000000     0.714220000000     0.694630000000     0          
O        O      0.301825000000     0.535605000000     0.643345000000     0          
O        O      0.354620000000     0.535675000000     0.692035000000     0          
O        O      0.316850000000     0.594255000000     0.683025000000     0          
O        O      0.283515000000     0.655500000000     0.694125000000     0          
O        O      0.250000000000     0.714425000000     0.674740000000     0          
O        O      0.325250000000     0.630765000000     0.750000000000     0          
O        O      0.308365000000     0.500000000000     0.574985000000     0          
O        O      0.250000000000     0.500000000000     0.612545000000     0          
O        O      0.338835000000     0.750000000000     0.573005000000     0          
O        O      0.283260000000     0.750000000000     0.618245000000     0          
T        Si     0.132915000000     0.809760000000     0.661075000000     0          
T        Si     0.167140000000     0.940470000000     0.660595000000     0          
T        Si     0.181385000000     0.865740000000     0.702265000000     0          
T        Si     0.126390000000     0.750000000000     0.547250000000     0          
T        Si     0.175770000000     0.750000000000     0.618395000000     0          
T        Si     0.209430000000     0.500000000000     0.618735000000     0          
T        Si     0.158485000000     0.500000000000     0.546460000000     0          
T        Si     0.250000000000     0.820790000000     0.703360000000     0          
O        O      0.106715000000     0.822120000000     0.626350000000     0          
O        O      0.162870000000     0.785755000000     0.641525000000     0          
O        O      0.149750000000     0.844730000000     0.682120000000     0          
O        O      0.113670000000     0.785780000000     0.694630000000     0          
O        O      0.198175000000     0.964395000000     0.643345000000     0          
O        O      0.145380000000     0.964325000000     0.692035000000     0          
O        O      0.183150000000     0.905745000000     0.683025000000     0          
O        O      0.216485000000     0.844500000000     0.694125000000     0          
O        O      0.250000000000     0.785575000000     0.674740000000     0          
O        O      0.174750000000     0.869235000000     0.750000000000     0          
O        O      0.191635000000     0.500000000000     0.574985000000     0          
O        O      0.161165000000     0.750000000000     0.573005000000     0          
O        O      0.216740000000     0.750000000000     0.618245000000     0          
T        Si     0.132915000000     0.690240000000     0.661075000000     0          
T        Si     0.167140000000     0.559530000000     0.660595000000     0          
T        Si     0.181385000000     0.634260000000     0.702265000000     0          
O        O      0.106715000000     0.677880000000     0.626350000000     0          
O        O      0.162870000000     0.714245000000     0.641525000000     0          
O        O      0.149750000000     0.655270000000     0.682120000000     0          
O        O      0.113670000000     0.714220000000     0.694630000000     0          
O        O      0.198175000000     0.535605000000     0.643345000000     0          
O        O      0.145380000000     0.535675000000     0.692035000000     0          
O        O      0.183150000000     0.594255000000     0.683025000000     0          
O        O      0.216485000000     0.655500000000     0.694125000000     0          
T        Si     0.367085000000     0.809760000000     0.661075000000     0          
T        Si     0.332860000000     0.940470000000     0.660595000000     0          
T        Si     0.318615000000     0.865740000000     0.702265000000     0          
O        O      0.393285000000     0.822120000000     0.626350000000     0          
O        O      0.337130000000     0.785755000000     0.641525000000     0          
O        O      0.350250000000     0.844730000000     0.682120000000     0          
O        O      0.386330000000     0.785780000000     0.694630000000     0          
O        O      0.301825000000     0.964395000000     0.643345000000     0          
O        O      0.354620000000     0.964325000000     0.692035000000     0          
O        O      0.316850000000     0.905745000000     0.683025000000     0          
O        O      0.283515000000     0.844500000000     0.694125000000     0          
T        Si     0.132915000000     0.809760000000     0.838925000000     0          
T        Si     0.167140000000     0.940470000000     0.839405000000     0          
T        Si     0.181385000000     0.865740000000     0.797735000000     0          
O        O      0.106715000000     0.822120000000     0.873650000000     0          
O        O      0.162870000000     0.785755000000     0.858475000000     0          
O        O      0.149750000000     0.844730000000     0.817880000000     0          
O        O      0.113670000000     0.785780000000     0.805370000000     0          
O        O      0.198175000000     0.964395000000     0.856655000000     0          
O        O      0.145380000000     0.964325000000     0.807965000000     0          
O        O      0.183150000000     0.905745000000     0.816975000000     0          
O        O      0.216485000000     0.844500000000     0.805875000000     0          
T        Si     0.367085000000     0.690240000000     0.838925000000     0          
T        Si     0.332860000000     0.559530000000     0.839405000000     0          
T        Si     0.318615000000     0.634260000000     0.797735000000     0          
O        O      0.393285000000     0.677880000000     0.873650000000     0          
O        O      0.337130000000     0.714245000000     0.858475000000     0          
O        O      0.350250000000     0.655270000000     0.817880000000     0          
O        O      0.386330000000     0.714220000000     0.805370000000     0          
O        O      0.301825000000     0.535605000000     0.856655000000     0          
O        O      0.354620000000     0.535675000000     0.807965000000     0          
O        O      0.316850000000     0.594255000000     0.816975000000     0          
O        O      0.283515000000     0.655500000000     0.805875000000     0          
T        Si     0.617085000000     0.059760000000     0.088925000000     0          
T        Si     0.582860000000     0.190470000000     0.089405000000     0          
T        Si     0.568615000000     0.115740000000     0.047735000000     0          
T        Si     0.623610000000     0.000000000000     0.202750000000     0          
T        Si     0.574230000000     0.000000000000     0.131605000000     0          
T        Si     0.540570000000     0.250000000000     0.131265000000     0          
T        Si     0.591515000000     0.250000000000     0.203540000000     0          
T        Si     0.500000000000     0.070790000000     0.046640000000     0          
T        Si     0.500000000000     0.000000000000     0.103310000000     0          
O        O      0.643285000000     0.072120000000     0.123650000000     0          
O        O      0.587130000000     0.035755000000     0.108475000000     0          
O        O      0.600250000000     0.094730000000     0.067880000000     0          
O        O      0.636330000000     0.035780000000     0.055370000000     0          
O        O      0.551825000000     0.214395000000     0.106655000000     0          
O        O      0.604620000000     0.214325000000     0.057965000000     0          
O        O      0.566850000000     0.155745000000     0.066975000000     0          
O        O      0.500000000000     0.058545000000     0.000000000000     0          
O        O      0.533515000000     0.094500000000     0.055875000000     0          
O        O      0.500000000000     0.035575000000     0.075260000000     0          
O        O      0.575250000000     0.119235000000     0.000000000000     0          
O        O      0.558365000000     0.250000000000     0.175015000000     0          
O        O      0.500000000000     0.250000000000     0.137455000000     0          
O        O      0.588835000000     0.000000000000     0.176995000000     0          
O        O      0.614165000000     0.000000000000     0.250000000000     0          
O        O      0.533260000000     0.000000000000     0.131755000000     0          
O        O      0.579530000000     0.250000000000     0.250000000000     0          
T        Si     0.882915000000     0.440240000000     0.088925000000     0          
T        Si     0.917140000000     0.309530000000     0.089405000000     0          
T        Si     0.931385000000     0.384260000000     0.047735000000     0          
T        Si     0.876390000000     0.000000000000     0.202750000000     0          
T        Si     0.925770000000     0.000000000000     0.131605000000     0          
T        Si     0.959430000000     0.250000000000     0.131265000000     0          
T        Si     0.908485000000     0.250000000000     0.203540000000     0          
T        Si     0.500000000000     0.429210000000     0.046640000000     0          
O        O      0.856715000000     0.427880000000     0.123650000000     0          
O        O      0.912870000000     0.464245000000     0.108475000000     0          
O        O      0.899750000000     0.405270000000     0.067880000000     0          
O        O      0.863670000000     0.464220000000     0.055370000000     0          
O        O      0.948175000000     0.285605000000     0.106655000000     0          
O        O      0.895380000000     0.285675000000     0.057965000000     0          
O        O      0.933150000000     0.344255000000     0.066975000000     0          
O        O      0.500000000000     0.441455000000     0.000000000000     0          
O        O      0.966485000000     0.405500000000     0.055875000000     0          
O        O      0.500000000000     0.464425000000     0.075260000000     0          
O        O      0.924750000000     0.380765000000     0.000000000000     0          
O        O      0.941635000000     0.250000000000     0.175015000000     0          
O        O      0.911165000000     0.000000000000     0.176995000000     0          
O        O      0.885835000000     0.000000000000     0.250000000000     0          
O        O      0.966740000000     0.000000000000     0.131755000000     0          
O        O      0.920470000000     0.250000000000     0.250000000000     0          
T        Si     0.617085000000     0.440240000000     0.411075000000     0          
T        Si     0.582860000000     0.309530000000     0.410595000000     0          
T        Si     0.568615000000     0.384260000000     0.452265000000     0          
T        Si     0.623610000000     0.000000000000     0.297250000000     0          
T        Si     0.574230000000     0.000000000000     0.368395000000     0          
T        Si     0.540570000000     0.250000000000     0.368735000000     0          
T        Si     0.591515000000     0.250000000000     0.296460000000     0          
T        Si     0.500000000000     0.429210000000     0.453360000000     0          
T        Si     0.500000000000     0.000000000000     0.396690000000     0          
O        O      0.643285000000     0.427880000000     0.376350000000     0          
O        O      0.587130000000     0.464245000000     0.391525000000     0          
O        O      0.600250000000     0.405270000000     0.432120000000     0          
O        O      0.636330000000     0.464220000000     0.444630000000     0          
O        O      0.551825000000     0.285605000000     0.393345000000     0          
O        O      0.604620000000     0.285675000000     0.442035000000     0          
O        O      0.566850000000     0.344255000000     0.433025000000     0          
O        O      0.533515000000     0.405500000000     0.444125000000     0          
O        O      0.500000000000     0.464425000000     0.424740000000     0          
O        O      0.575250000000     0.380765000000     0.000000000000     0          
O        O      0.558365000000     0.250000000000     0.324985000000     0          
O        O      0.500000000000     0.250000000000     0.362545000000     0          
O        O      0.588835000000     0.000000000000     0.323005000000     0          
O        O      0.533260000000     0.000000000000     0.368245000000     0          
T        Si     0.882915000000     0.059760000000     0.411075000000     0          
T        Si     0.917140000000     0.190470000000     0.410595000000     0          
T        Si     0.931385000000     0.115740000000     0.452265000000     0          
T        Si     0.876390000000     0.000000000000     0.297250000000     0          
T        Si     0.925770000000     0.000000000000     0.368395000000     0          
T        Si     0.959430000000     0.250000000000     0.368735000000     0          
T        Si     0.908485000000     0.250000000000     0.296460000000     0          
T        Si     0.500000000000     0.070790000000     0.453360000000     0          
O        O      0.856715000000     0.072120000000     0.376350000000     0          
O        O      0.912870000000     0.035755000000     0.391525000000     0          
O        O      0.899750000000     0.094730000000     0.432120000000     0          
O        O      0.863670000000     0.035780000000     0.444630000000     0          
O        O      0.948175000000     0.214395000000     0.393345000000     0          
O        O      0.895380000000     0.214325000000     0.442035000000     0          
O        O      0.933150000000     0.155745000000     0.433025000000     0          
O        O      0.966485000000     0.094500000000     0.444125000000     0          
O        O      0.500000000000     0.035575000000     0.424740000000     0          
O        O      0.924750000000     0.119235000000     0.000000000000     0          
O        O      0.941635000000     0.250000000000     0.324985000000     0          
O        O      0.911165000000     0.000000000000     0.323005000000     0          
O        O      0.966740000000     0.000000000000     0.368245000000     0          
T        Si     0.882915000000     0.440240000000     0.411075000000     0          
T        Si     0.917140000000     0.309530000000     0.410595000000     0          
T        Si     0.931385000000     0.384260000000     0.452265000000     0          
O        O      0.856715000000     0.427880000000     0.376350000000     0          
O        O      0.912870000000     0.464245000000     0.391525000000     0          
O        O      0.899750000000     0.405270000000     0.432120000000     0          
O        O      0.863670000000     0.464220000000     0.444630000000     0          
O        O      0.948175000000     0.285605000000     0.393345000000     0          
O        O      0.895380000000     0.285675000000     0.442035000000     0          
O        O      0.933150000000     0.344255000000     0.433025000000     0          
O        O      0.966485000000     0.405500000000     0.444125000000     0          
T        Si     0.617085000000     0.059760000000     0.411075000000     0          
T        Si     0.582860000000     0.190470000000     0.410595000000     0          
T        Si     0.568615000000     0.115740000000     0.452265000000     0          
O        O      0.643285000000     0.072120000000     0.376350000000     0          
O        O      0.587130000000     0.035755000000     0.391525000000     0          
O        O      0.600250000000     0.094730000000     0.432120000000     0          
O        O      0.636330000000     0.035780000000     0.444630000000     0          
O        O      0.551825000000     0.214395000000     0.393345000000     0          
O        O      0.604620000000     0.214325000000     0.442035000000     0          
O        O      0.566850000000     0.155745000000     0.433025000000     0          
O        O      0.533515000000     0.094500000000     0.444125000000     0          
T        Si     0.882915000000     0.059760000000     0.088925000000     0          
T        Si     0.917140000000     0.190470000000     0.089405000000     0          
T        Si     0.931385000000     0.115740000000     0.047735000000     0          
O        O      0.856715000000     0.072120000000     0.123650000000     0          
O        O      0.912870000000     0.035755000000     0.108475000000     0          
O        O      0.899750000000     0.094730000000     0.067880000000     0          
O        O      0.863670000000     0.035780000000     0.055370000000     0          
O        O      0.948175000000     0.214395000000     0.106655000000     0          
O        O      0.895380000000     0.214325000000     0.057965000000     0          
O        O      0.933150000000     0.155745000000     0.066975000000     0          
O        O      0.966485000000     0.094500000000     0.055875000000     0          
T        Si     0.617085000000     0.440240000000     0.088925000000     0          
T        Si     0.582860000000     0.309530000000     0.089405000000     0          
T        Si     0.568615000000     0.384260000000     0.047735000000     0          
O        O      0.643285000000     0.427880000000     0.123650000000     0          
O        O      0.587130000000     0.464245000000     0.108475000000     0          
O        O      0.600250000000     0.405270000000     0.067880000000     0          
O        O      0.636330000000     0.464220000000     0.055370000000     0          
O        O      0.551825000000     0.285605000000     0.106655000000     0          
O        O      0.604620000000     0.285675000000     0.057965000000     0          
O        O      0.566850000000     0.344255000000     0.066975000000     0          
O        O      0.533515000000     0.405500000000     0.055875000000     0          
T        Si     0.867085000000     0.309760000000     0.338925000000     0          
T        Si     0.832860000000     0.440470000000     0.339405000000     0          
T        Si     0.818615000000     0.365740000000     0.297735000000     0          
T        Si     0.873610000000     0.250000000000     0.452750000000     0          
T        Si     0.824230000000     0.250000000000     0.381605000000     0          
T        Si     0.790570000000     0.000000000000     0.381265000000     0          
T        Si     0.841515000000     0.000000000000     0.453540000000     0          
T        Si     0.750000000000     0.320790000000     0.296640000000     0          
T        Si     0.750000000000     0.250000000000     0.353310000000     0          
O        O      0.893285000000     0.322120000000     0.373650000000     0          
O        O      0.837130000000     0.285755000000     0.358475000000     0          
O        O      0.850250000000     0.344730000000     0.317880000000     0          
O        O      0.886330000000     0.285780000000     0.305370000000     0          
O        O      0.801825000000     0.464395000000     0.356655000000     0          
O        O      0.854620000000     0.464325000000     0.307965000000     0          
O        O      0.816850000000     0.405745000000     0.316975000000     0          
O        O      0.750000000000     0.308545000000     0.250000000000     0          
O        O      0.783515000000     0.344500000000     0.305875000000     0          
O        O      0.750000000000     0.285575000000     0.325260000000     0          
O        O      0.825250000000     0.369235000000     0.250000000000     0          
O        O      0.808365000000     0.000000000000     0.425015000000     0          
O        O      0.750000000000     0.000000000000     0.387455000000     0          
O        O      0.838835000000     0.250000000000     0.426995000000     0          
O        O      0.864165000000     0.250000000000     0.000000000000     0          
O        O      0.783260000000     0.250000000000     0.381755000000     0          
O        O      0.829530000000     0.000000000000     0.000000000000     0          
T        Si     0.632915000000     0.190240000000     0.338925000000     0          
T        Si     0.667140000000     0.059530000000     0.339405000000     0          
T        Si     0.681385000000     0.134260000000     0.297735000000     0          
T        Si     0.626390000000     0.250000000000     0.452750000000     0          
T        Si     0.675770000000     0.250000000000     0.381605000000     0          
T        Si     0.709430000000     0.000000000000     0.381265000000     0          
T        Si     0.658485000000     0.000000000000     0.453540000000     0          
T        Si     0.750000000000     0.179210000000     0.296640000000     0          
O        O      0.606715000000     0.177880000000     0.373650000000     0          
O        O      0.662870000000     0.214245000000     0.358475000000     0          
O        O      0.649750000000     0.155270000000     0.317880000000     0          
O        O      0.613670000000     0.214220000000     0.305370000000     0          
O        O      0.698175000000     0.035605000000     0.356655000000     0          
O        O      0.645380000000     0.035675000000     0.307965000000     0          
O        O      0.683150000000     0.094255000000     0.316975000000     0          
O        O      0.750000000000     0.191455000000     0.250000000000     0          
O        O      0.716485000000     0.155500000000     0.305875000000     0          
O        O      0.750000000000     0.214425000000     0.325260000000     0          
O        O      0.674750000000     0.130765000000     0.250000000000     0          
O        O      0.691635000000     0.000000000000     0.425015000000     0          
O        O      0.661165000000     0.250000000000     0.426995000000     0          
O        O      0.635835000000     0.250000000000     0.000000000000     0          
O        O      0.716740000000     0.250000000000     0.381755000000     0          
O        O      0.670470000000     0.000000000000     0.000000000000     0          
T        Si     0.867085000000     0.190240000000     0.161075000000     0          
T        Si     0.832860000000     0.059530000000     0.160595000000     0          
T        Si     0.818615000000     0.134260000000     0.202265000000     0          
T        Si     0.873610000000     0.250000000000     0.047250000000     0          
T        Si     0.824230000000     0.250000000000     0.118395000000     0          
T        Si     0.790570000000     0.000000000000     0.118735000000     0          
T        Si     0.841515000000     0.000000000000     0.046460000000     0          
T        Si     0.750000000000     0.179210000000     0.203360000000     0          
T        Si     0.750000000000     0.250000000000     0.146690000000     0          
O        O      0.893285000000     0.177880000000     0.126350000000     0          
O        O      0.837130000000     0.214245000000     0.141525000000     0          
O        O      0.850250000000     0.155270000000     0.182120000000     0          
O        O      0.886330000000     0.214220000000     0.194630000000     0          
O        O      0.801825000000     0.035605000000     0.143345000000     0          
O        O      0.854620000000     0.035675000000     0.192035000000     0          
O        O      0.816850000000     0.094255000000     0.183025000000     0          
O        O      0.783515000000     0.155500000000     0.194125000000     0          
O        O      0.750000000000     0.214425000000     0.174740000000     0          
O        O      0.825250000000     0.130765000000     0.250000000000     0          
O        O      0.808365000000     0.000000000000     0.074985000000     0          
O        O      0.750000000000     0.000000000000     0.112545000000     0          
O        O      0.838835000000     0.250000000000     0.073005000000     0          
O        O      0.783260000000     0.250000000000     0.118245000000     0          
T        Si     0.632915000000     0.309760000000     0.161075000000     0          
T        Si     0.667140000000     0.440470000000     0.160595000000     0          
T        Si     0.681385000000     0.365740000000     0.202265000000     0          
T        Si     0.626390000000     0.250000000000     0.047250000000     0          
T        Si     0.675770000000     0.250000000000     0.118395000000     0          
T        Si     0.709430000000     0.000000000000     0.118735000000     0          
T        Si     0.658485000000     0.000000000000     0.046460000000     0          
T        Si     0.750000000000     0.320790000000     0.203360000000     0          
O        O      0.606715000000     0.322120000000     0.126350000000     0          
O        O      0.662870000000     0.285755000000     0.141525000000     0          
O        O      0.649750000000     0.344730000000     0.182120000000     0          
O        O      0.613670000000     0.285780000000     0.194630000000     0          
O        O      0.698175000000     0.464395000000     0.143345000000     0          
O        O      0.645380000000     0.464325000000     0.192035000000     0          
O        O      0.683150000000     0.405745000000     0.183025000000     0          
O        O      0.716485000000     0.344500000000     0.194125000000     0          
O        O      0.750000000000     0.285575000000     0.174740000000     0          
O        O      0.674750000000     0.369235000000     0.250000000000     0          
O        O      0.691635000000     0.000000000000     0.074985000000     0          
O        O      0.661165000000     0.250000000000     0.073005000000     0          
O        O      0.716740000000     0.250000000000     0.118245000000     0          
T        Si     0.632915000000     0.190240000000     0.161075000000     0          
T        Si     0.667140000000     0.059530000000     0.160595000000     0          
T        Si     0.681385000000     0.134260000000     0.202265000000     0          
O        O      0.606715000000     0.177880000000     0.126350000000     0          
O        O      0.662870000000     0.214245000000     0.141525000000     0          
O        O      0.649750000000     0.155270000000     0.182120000000     0          
O        O      0.613670000000     0.214220000000     0.194630000000     0          
O        O      0.698175000000     0.035605000000     0.143345000000     0          
O        O      0.645380000000     0.035675000000     0.192035000000     0          
O        O      0.683150000000     0.094255000000     0.183025000000     0          
O        O      0.716485000000     0.155500000000     0.194125000000     0          
T        Si     0.867085000000     0.309760000000     0.161075000000     0          
T        Si     0.832860000000     0.440470000000     0.160595000000     0          
T        Si     0.818615000000     0.365740000000     0.202265000000     0          
O        O      0.893285000000     0.322120000000     0.126350000000     0          
O        O      0.837130000000     0.285755000000     0.141525000000     0          
O        O      0.850250000000     0.344730000000     0.182120000000     0          
O        O      0.886330000000     0.285780000000     0.194630000000     0          
O        O      0.801825000000     0.464395000000     0.143345000000     0          
O        O      0.854620000000     0.464325000000     0.192035000000     0          
O        O      0.816850000000     0.405745000000     0.183025000000     0          
O        O      0.783515000000     0.344500000000     0.194125000000     0          
T        Si     0.632915000000     0.309760000000     0.338925000000     0          
T        Si     0.667140000000     0.440470000000     0.339405000000     0          
T        Si     0.681385000000     0.365740000000     0.297735000000     0          
O        O      0.606715000000     0.322120000000     0.373650000000     0          
O        O      0.662870000000     0.285755000000     0.358475000000     0          
O        O      0.649750000000     0.344730000000     0.317880000000     0          
O        O      0.613670000000     0.285780000000     0.305370000000     0          
O        O      0.698175000000     0.464395000000     0.356655000000     0          
O        O      0.645380000000     0.464325000000     0.307965000000     0          
O        O      0.683150000000     0.405745000000     0.316975000000     0          
O        O      0.716485000000     0.344500000000     0.305875000000     0          
T        Si     0.867085000000     0.190240000000     0.338925000000     0          
T        Si     0.832860000000     0.059530000000     0.339405000000     0          
T        Si     0.818615000000     0.134260000000     0.297735000000     0          
O        O      0.893285000000     0.177880000000     0.373650000000     0          
O        O      0.837130000000     0.214245000000     0.358475000000     0          
O        O      0.850250000000     0.155270000000     0.317880000000     0          
O        O      0.886330000000     0.214220000000     0.305370000000     0          
O        O      0.801825000000     0.035605000000     0.356655000000     0          
O        O      0.854620000000     0.035675000000     0.307965000000     0          
O        O      0.816850000000     0.094255000000     0.316975000000     0          
O        O      0.783515000000     0.155500000000     0.305875000000     0          
T        Si     0.617085000000     0.059760000000     0.588925000000     0          
T        Si     0.582860000000     0.190470000000     0.589405000000     0          
T        Si     0.568615000000     0.115740000000     0.547735000000     0          
T        Si     0.623610000000     0.000000000000     0.702750000000     0          
T        Si     0.574230000000     0.000000000000     0.631605000000     0          
T        Si     0.540570000000     0.250000000000     0.631265000000     0          
T        Si     0.591515000000     0.250000000000     0.703540000000     0          
T        Si     0.500000000000     0.070790000000     0.546640000000     0          
T        Si     0.500000000000     0.000000000000     0.603310000000     0          
O        O      0.643285000000     0.072120000000     0.623650000000     0          
O        O      0.587130000000     0.035755000000     0.608475000000     0          
O        O      0.600250000000     0.094730000000     0.567880000000     0          
O        O      0.636330000000     0.035780000000     0.555370000000     0          
O        O      0.551825000000     0.214395000000     0.606655000000     0          
O        O      0.604620000000     0.214325000000     0.557965000000     0          
O        O      0.566850000000     0.155745000000     0.566975000000     0          
O        O      0.500000000000     0.058545000000     0.500000000000     0          
O        O      0.533515000000     0.094500000000     0.555875000000     0          
O        O      0.500000000000     0.035575000000     0.575260000000     0          
O        O      0.575250000000     0.119235000000     0.500000000000     0          
O        O      0.558365000000     0.250000000000     0.675015000000     0          
O        O      0.500000000000     0.250000000000     0.637455000000     0          
O        O      0.588835000000     0.000000000000     0.676995000000     0          
O        O      0.614165000000     0.000000000000     0.750000000000     0          
O        O      0.533260000000     0.000000000000     0.631755000000     0          
O        O      0.579530000000     0.250000000000     0.750000000000     0          
T        Si     0.882915000000     0.440240000000     0.588925000000     0          
T        Si     0.917140000000     0.309530000000     0.589405000000     0          
T        Si     0.931385000000     0.384260000000     0.547735000000     0          
T        Si     0.876390000000     0.000000000000     0.702750000000     0          
T        Si     0.925770000000     0.000000000000     0.631605000000     0          
T        Si     0.959430000000     0.250000000000     0.631265000000     0          
T        Si     0.908485000000     0.250000000000     0.703540000000     0          
T        Si     0.500000000000     0.429210000000     0.546640000000     0          
O        O      0.856715000000     0.427880000000     0.623650000000     0          
O        O      0.912870000000     0.464245000000     0.608475000000     0          
O        O      0.899750000000     0.405270000000     0.567880000000     0          
O        O      0.863670000000     0.464220000000     0.555370000000     0          
O        O      0.948175000000     0.285605000000     0.606655000000     0          
O        O      0.895380000000     0.285675000000     0.557965000000     0          
O        O      0.933150000000     0.344255000000     0.566975000000     0          
O        O      0.500000000000     0.441455000000     0.500000000000     0          
O        O      0.966485000000     0.405500000000     0.555875000000     0          
O        O      0.500000000000     0.464425000000     0.575260000000     0          
O        O      0.924750000000     0.380765000000     0.500000000000     0          
O        O      0.941635000000     0.250000000000     0.675015000000     0          
O        O      0.911165000000     0.000000000000     0.676995000000     0          
O        O      0.885835000000     0.000000000000     0.750000000000     0          
O        O      0.966740000000     0.000000000000     0.631755000000     0          
O        O      0.920470000000     0.250000000000     0.750000000000     0          
T        Si     0.617085000000     0.440240000000     0.911075000000     0          
T        Si     0.582860000000     0.309530000000     0.910595000000     0          
T        Si     0.568615000000     0.384260000000     0.952265000000     0          
T        Si     0.623610000000     0.000000000000     0.797250000000     0          
T        Si     0.574230000000     0.000000000000     0.868395000000     0          
T        Si     0.540570000000     0.250000000000     0.868735000000     0          
T        Si     0.591515000000     0.250000000000     0.796460000000     0          
T        Si     0.500000000000     0.429210000000     0.953360000000     0          
T        Si     0.500000000000     0.000000000000     0.896690000000     0          
O        O      0.643285000000     0.427880000000     0.876350000000     0          
O        O      0.587130000000     0.464245000000     0.891525000000     0          
O        O      0.600250000000     0.405270000000     0.932120000000     0          
O        O      0.636330000000     0.464220000000     0.944630000000     0          
O        O      0.551825000000     0.285605000000     0.893345000000     0          
O        O      0.604620000000     0.285675000000     0.942035000000     0          
O        O      0.566850000000     0.344255000000     0.933025000000     0          
O        O      0.533515000000     0.405500000000     0.944125000000     0          
O        O      0.500000000000     0.464425000000     0.924740000000     0          
O        O      0.575250000000     0.380765000000     0.500000000000     0          
O        O      0.558365000000     0.250000000000     0.824985000000     0          
O        O      0.500000000000     0.250000000000     0.862545000000     0          
O        O      0.588835000000     0.000000000000     0.823005000000     0          
O        O      0.533260000000     0.000000000000     0.868245000000     0          
T        Si     0.882915000000     0.059760000000     0.911075000000     0          
T        Si     0.917140000000     0.190470000000     0.910595000000     0          
T        Si     0.931385000000     0.115740000000     0.952265000000     0          
T        Si     0.876390000000     0.000000000000     0.797250000000     0          
T        Si     0.925770000000     0.000000000000     0.868395000000     0          
T        Si     0.959430000000     0.250000000000     0.868735000000     0          
T        Si     0.908485000000     0.250000000000     0.796460000000     0          
T        Si     0.500000000000     0.070790000000     0.953360000000     0          
O        O      0.856715000000     0.072120000000     0.876350000000     0          
O        O      0.912870000000     0.035755000000     0.891525000000     0          
O        O      0.899750000000     0.094730000000     0.932120000000     0          
O        O      0.863670000000     0.035780000000     0.944630000000     0          
O        O      0.948175000000     0.214395000000     0.893345000000     0          
O        O      0.895380000000     0.214325000000     0.942035000000     0          
O        O      0.933150000000     0.155745000000     0.933025000000     0          
O        O      0.966485000000     0.094500000000     0.944125000000     0          
O        O      0.500000000000     0.035575000000     0.924740000000     0          
O        O      0.924750000000     0.119235000000     0.500000000000     0          
O        O      0.941635000000     0.250000000000     0.824985000000     0          
O        O      0.911165000000     0.000000000000     0.823005000000     0          
O        O      0.966740000000     0.000000000000     0.868245000000     0          
T        Si     0.882915000000     0.440240000000     0.911075000000     0          
T        Si     0.917140000000     0.309530000000     0.910595000000     0          
T        Si     0.931385000000     0.384260000000     0.952265000000     0          
O        O      0.856715000000     0.427880000000     0.876350000000     0          
O        O      0.912870000000     0.464245000000     0.891525000000     0          
O        O      0.899750000000     0.405270000000     0.932120000000     0          
O        O      0.863670000000     0.464220000000     0.944630000000     0          
O        O      0.948175000000     0.285605000000     0.893345000000     0          
O        O      0.895380000000     0.285675000000     0.942035000000     0          
O        O      0.933150000000     0.344255000000     0.933025000000     0          
O        O      0.966485000000     0.405500000000     0.944125000000     0          
T        Si     0.617085000000     0.059760000000     0.911075000000     0          
T        Si     0.582860000000     0.190470000000     0.910595000000     0          
T        Si     0.568615000000     0.115740000000     0.952265000000     0          
O        O      0.643285000000     0.072120000000     0.876350000000     0          
O        O      0.587130000000     0.035755000000     0.891525000000     0          
O        O      0.600250000000     0.094730000000     0.932120000000     0          
O        O      0.636330000000     0.035780000000     0.944630000000     0          
O        O      0.551825000000     0.214395000000     0.893345000000     0          
O        O      0.604620000000     0.214325000000     0.942035000000     0          
O        O      0.566850000000     0.155745000000     0.933025000000     0          
O        O      0.533515000000     0.094500000000     0.944125000000     0          
T        Si     0.882915000000     0.059760000000     0.588925000000     0          
T        Si     0.917140000000     0.190470000000     0.589405000000     0          
T        Si     0.931385000000     0.115740000000     0.547735000000     0          
O        O      0.856715000000     0.072120000000     0.623650000000     0          
O        O      0.912870000000     0.035755000000     0.608475000000     0          
O        O      0.899750000000     0.094730000000     0.567880000000     0          
O        O      0.863670000000     0.035780000000     0.555370000000     0          
O        O      0.948175000000     0.214395000000     0.606655000000     0          
O        O      0.895380000000     0.214325000000     0.557965000000     0          
O        O      0.933150000000     0.155745000000     0.566975000000     0          
O        O      0.966485000000     0.094500000000     0.555875000000     0          
T        Si     0.617085000000     0.440240000000     0.588925000000     0          
T        Si     0.582860000000     0.309530000000     0.589405000000     0          
T        Si     0.568615000000     0.384260000000     0.547735000000     0          
O        O      0.643285000000     0.427880000000     0.623650000000     0          
O        O      0.587130000000     0.464245000000     0.608475000000     0          
O        O      0.600250000000     0.405270000000     0.567880000000     0          
O        O      0.636330000000     0.464220000000     0.555370000000     0          
O        O      0.551825000000     0.285605000000     0.606655000000     0          
O        O      0.604620000000     0.285675000000     0.557965000000     0          
O        O      0.566850000000     0.344255000000     0.566975000000     0          
O        O      0.533515000000     0.405500000000     0.555875000000     0          
T        Si     0.867085000000     0.309760000000     0.838925000000     0          
T        Si     0.832860000000     0.440470000000     0.839405000000     0          
T        Si     0.818615000000     0.365740000000     0.797735000000     0          
T        Si     0.873610000000     0.250000000000     0.952750000000     0          
T        Si     0.824230000000     0.250000000000     0.881605000000     0          
T        Si     0.790570000000     0.000000000000     0.881265000000     0          
T        Si     0.841515000000     0.000000000000     0.953540000000     0          
T        Si     0.750000000000     0.320790000000     0.796640000000     0          
T        Si     0.750000000000     0.250000000000     0.853310000000     0          
O        O      0.893285000000     0.322120000000     0.873650000000     0          
O        O      0.837130000000     0.285755000000     0.858475000000     0          
O        O      0.850250000000     0.344730000000     0.817880000000     0          
O        O      0.886330000000     0.285780000000     0.805370000000     0          
O        O      0.801825000000     0.464395000000     0.856655000000     0          
O        O      0.854620000000     0.464325000000     0.807965000000     0          
O        O      0.816850000000     0.405745000000     0.816975000000     0          
O        O      0.750000000000     0.308545000000     0.750000000000     0          
O        O      0.783515000000     0.344500000000     0.805875000000     0          
O        O      0.750000000000     0.285575000000     0.825260000000     0          
O        O      0.825250000000     0.369235000000     0.750000000000     0          
O        O      0.808365000000     0.000000000000     0.925015000000     0          
O        O      0.750000000000     0.000000000000     0.887455000000     0          
O        O      0.838835000000     0.250000000000     0.926995000000     0          
O        O      0.864165000000     0.250000000000     0.500000000000     0          
O        O      0.783260000000     0.250000000000     0.881755000000     0          
O        O      0.829530000000     0.000000000000     0.500000000000     0          
T        Si     0.632915000000     0.190240000000     0.838925000000     0          
T        Si     0.667140000000     0.059530000000     0.839405000000     0          
T        Si     0.681385000000     0.134260000000     0.797735000000     0          
T        Si     0.626390000000     0.250000000000     0.952750000000     0          
T        Si     0.675770000000     0.250000000000     0.881605000000     0          
T        Si     0.709430000000     0.000000000000     0.881265000000     0          
T        Si     0.658485000000     0.000000000000     0.953540000000     0          
T        Si     0.750000000000     0.179210000000     0.796640000000     0          
O        O      0.606715000000     0.177880000000     0.873650000000     0          
O        O      0.662870000000     0.214245000000     0.858475000000     0          
O        O      0.649750000000     0.155270000000     0.817880000000     0          
O        O      0.613670000000     0.214220000000     0.805370000000     0          
O        O      0.698175000000     0.035605000000     0.856655000000     0          
O        O      0.645380000000     0.035675000000     0.807965000000     0          
O        O      0.683150000000     0.094255000000     0.816975000000     0          
O        O      0.750000000000     0.191455000000     0.750000000000     0          
O        O      0.716485000000     0.155500000000     0.805875000000     0          
O        O      0.750000000000     0.214425000000     0.825260000000     0          
O        O      0.674750000000     0.130765000000     0.750000000000     0          
O        O      0.691635000000     0.000000000000     0.925015000000     0          
O        O      0.661165000000     0.250000000000     0.926995000000     0          
O        O      0.635835000000     0.250000000000     0.500000000000     0          
O        O      0.716740000000     0.250000000000     0.881755000000     0          
O        O      0.670470000000     0.000000000000     0.500000000000     0          
T        Si     0.867085000000     0.190240000000     0.661075000000     0          
T        Si     0.832860000000     0.059530000000     0.660595000000     0          
T        Si     0.818615000000     0.134260000000     0.702265000000     0          
T        Si     0.873610000000     0.250000000000     0.547250000000     0          
T        Si     0.824230000000     0.250000000000     0.618395000000     0          
T        Si     0.790570000000     0.000000000000     0.618735000000     0          
T        Si     0.841515000000     0.000000000000     0.546460000000     0          
T        Si     0.750000000000     0.179210000000     0.703360000000     0          
T        Si     0.750000000000     0.250000000000     0.646690000000     0          
O        O      0.893285000000     0.177880000000     0.626350000000     0          
O        O      0.837130000000     0.214245000000     0.641525000000     0          
O        O      0.850250000000     0.155270000000     0.682120000000     0          
O        O      0.886330000000     0.214220000000     0.694630000000     0          
O        O      0.801825000000     0.035605000000     0.643345000000     0          
O        O      0.854620000000     0.035675000000     0.692035000000     0          
O        O      0.816850000000     0.094255000000     0.683025000000     0          
O        O      0.783515000000     0.155500000000     0.694125000000     0          
O        O      0.750000000000     0.214425000000     0.674740000000     0          
O        O      0.825250000000     0.130765000000     0.750000000000     0          
O        O      0.808365000000     0.000000000000     0.574985000000     0          
O        O      0.750000000000     0.000000000000     0.612545000000     0          
O        O      0.838835000000     0.250000000000     0.573005000000     0          
O        O      0.783260000000     0.250000000000     0.618245000000     0          
T        Si     0.632915000000     0.309760000000     0.661075000000     0          
T        Si     0.667140000000     0.440470000000     0.660595000000     0          
T        Si     0.681385000000     0.365740000000     0.702265000000     0          
T        Si     0.626390000000     0.250000000000     0.547250000000     0          
T        Si     0.675770000000     0.250000000000     0.618395000000     0          
T        Si     0.709430000000     0.000000000000     0.618735000000     0          
T        Si     0.658485000000     0.000000000000     0.546460000000     0          
T        Si     0.750000000000     0.320790000000     0.703360000000     0          
O        O      0.606715000000     0.322120000000     0.626350000000     0          
O        O      0.662870000000     0.285755000000     0.641525000000     0          
O        O      0.649750000000     0.344730000000     0.682120000000     0          
O        O      0.613670000000     0.285780000000     0.694630000000     0          
O        O      0.698175000000     0.464395000000     0.643345000000     0          
O        O      0.645380000000     0.464325000000     0.692035000000     0          
O        O      0.683150000000     0.405745000000     0.683025000000     0          
O        O      0.716485000000     0.344500000000     0.694125000000     0          
O        O      0.750000000000     0.285575000000     0.674740000000     0          
O        O      0.674750000000     0.369235000000     0.750000000000     0          
O        O      0.691635000000     0.000000000000     0.574985000000     0          
O        O      0.661165000000     0.250000000000     0.573005000000     0          
O        O      0.716740000000     0.250000000000     0.618245000000     0          
T        Si     0.632915000000     0.190240000000     0.661075000000     0          
T        Si     0.667140000000     0.059530000000     0.660595000000     0          
T        Si     0.681385000000     0.134260000000     0.702265000000     0          
O        O      0.606715000000     0.177880000000     0.626350000000     0          
O        O      0.662870000000     0.214245000000     0.641525000000     0          
O        O      0.649750000000     0.155270000000     0.682120000000     0          
O        O      0.613670000000     0.214220000000     0.694630000000     0          
O        O      0.698175000000     0.035605000000     0.643345000000     0          
O        O      0.645380000000     0.035675000000     0.692035000000     0          
O        O      0.683150000000     0.094255000000     0.683025000000     0          
O        O      0.716485000000     0.155500000000     0.694125000000     0          
T        Si     0.867085000000     0.309760000000     0.661075000000     0          
T        Si     0.832860000000     0.440470000000     0.660595000000     0          
T        Si     0.818615000000     0.365740000000     0.702265000000     0          
O        O      0.893285000000     0.322120000000     0.626350000000     0          
O        O      0.837130000000     0.285755000000     0.641525000000     0          
O        O      0.850250000000     0.344730000000     0.682120000000     0          
O        O      0.886330000000     0.285780000000     0.694630000000     0          
O        O      0.801825000000     0.464395000000     0.643345000000     0          
O        O      0.854620000000     0.464325000000     0.692035000000     0          
O        O      0.816850000000     0.405745000000     0.683025000000     0          
O        O      0.783515000000     0.344500000000     0.694125000000     0          
T        Si     0.632915000000     0.309760000000     0.838925000000     0          
T        Si     0.667140000000     0.440470000000     0.839405000000     0          
T        Si     0.681385000000     0.365740000000     0.797735000000     0          
O        O      0.606715000000     0.322120000000     0.873650000000     0          
O        O      0.662870000000     0.285755000000     0.858475000000     0          
O        O      0.649750000000     0.344730000000     0.817880000000     0          
O        O      0.613670000000     0.285780000000     0.805370000000     0          
O        O      0.698175000000     0.464395000000     0.856655000000     0          
O        O      0.645380000000     0.464325000000     0.807965000000     0          
O        O      0.683150000000     0.405745000000     0.816975000000     0          
O        O      0.716485000000     0.344500000000     0.805875000000     0          
T        Si     0.867085000000     0.190240000000     0.838925000000     0          
T        Si     0.832860000000     0.059530000000     0.839405000000     0          
T        Si     0.818615000000     0.134260000000     0.797735000000     0          
O        O      0.893285000000     0.177880000000     0.873650000000     0          
O        O      0.837130000000     0.214245000000     0.858475000000     0          
O        O      0.850250000000     0.155270000000     0.817880000000     0          
O        O      0.886330000000     0.214220000000     0.805370000000     0          
O        O      0.801825000000     0.035605000000     0.856655000000     0          
O        O      0.854620000000     0.035675000000     0.807965000000     0          
O        O      0.816850000000     0.094255000000     0.816975000000     0          
O        O      0.783515000000     0.155500000000     0.805875000000     0          
T        Si     0.617085000000     0.559760000000     0.088925000000     0          
T        Si     0.582860000000     0.690470000000     0.089405000000     0          
T        Si     0.568615000000     0.615740000000     0.047735000000     0          
T        Si     0.623610000000     0.500000000000     0.202750000000     0          
T        Si     0.574230000000     0.500000000000     0.131605000000     0          
T        Si     0.540570000000     0.750000000000     0.131265000000     0          
T        Si     0.591515000000     0.750000000000     0.203540000000     0          
T        Si     0.500000000000     0.570790000000     0.046640000000     0          
T        Si     0.500000000000     0.500000000000     0.103310000000     0          
O        O      0.643285000000     0.572120000000     0.123650000000     0          
O        O      0.587130000000     0.535755000000     0.108475000000     0          
O        O      0.600250000000     0.594730000000     0.067880000000     0          
O        O      0.636330000000     0.535780000000     0.055370000000     0          
O        O      0.551825000000     0.714395000000     0.106655000000     0          
O        O      0.604620000000     0.714325000000     0.057965000000     0          
O        O      0.566850000000     0.655745000000     0.066975000000     0          
O        O      0.500000000000     0.558545000000     0.000000000000     0          
O        O      0.533515000000     0.594500000000     0.055875000000     0          
O        O      0.500000000000     0.535575000000     0.075260000000     0          
O        O      0.575250000000     0.619235000000     0.000000000000     0          
O        O      0.558365000000     0.750000000000     0.175015000000     0          
O        O      0.500000000000     0.750000000000     0.137455000000     0          
O        O      0.588835000000     0.500000000000     0.176995000000     0          
O        O      0.614165000000     0.500000000000     0.250000000000     0          
O        O      0.533260000000     0.500000000000     0.131755000000     0          
O        O      0.579530000000     0.750000000000     0.250000000000     0          
T        Si     0.882915000000     0.940240000000     0.088925000000     0          
T        Si     0.917140000000     0.809530000000     0.089405000000     0          
T        Si     0.931385000000     0.884260000000     0.047735000000     0          
T        Si     0.876390000000     0.500000000000     0.202750000000     0          
T        Si     0.925770000000     0.500000000000     0.131605000000     0          
T        Si     0.959430000000     0.750000000000     0.131265000000     0          
T        Si     0.908485000000     0.750000000000     0.203540000000     0          
T        Si     0.500000000000     0.929210000000     0.046640000000     0          
O        O      0.856715000000     0.927880000000     0.123650000000     0          
O        O      0.912870000000     0.964245000000     0.108475000000     0          
O        O      0.899750000000     0.905270000000     0.067880000000     0          
O        O      0.863670000000     0.964220000000     0.055370000000     0          
O        O      0.948175000000     0.785605000000     0.106655000000     0          
O        O      0.895380000000     0.785675000000     0.057965000000     0          
O        O      0.933150000000     0.844255000000     0.066975000000     0          
O        O      0.500000000000     0.941455000000     0.000000000000     0          
O        O      0.966485000000     0.905500000000     0.055875000000     0          
O        O      0.500000000000     0.964425000000     0.075260000000     0          
O        O      0.924750000000     0.880765000000     0.000000000000     0          
O        O      0.941635000000     0.750000000000     0.175015000000     0          
O        O      0.911165000000     0.500000000000     0.176995000000     0          
O        O      0.885835000000     0.500000000000     0.250000000000     0          
O        O      0.966740000000     0.500000000000     0.131755000000     0          
O        O      0.920470000000     0.750000000000     0.250000000000     0          
T        Si     0.617085000000     0.940240000000     0.411075000000     0          
T        Si     0.582860000000     0.809530000000     0.410595000000     0          
T        Si     0.568615000000     0.884260000000     0.452265000000     0          
T        Si     0.623610000000     0.500000000000     0.297250000000     0          
T        Si     0.574230000000     0.500000000000     0.368395000000     0          
T        Si     0.540570000000     0.750000000000     0.368735000000     0          
T        Si     0.591515000000     0.750000000000     0.296460000000     0          
T        Si     0.500000000000     0.929210000000     0.453360000000     0          
T        Si     0.500000000000     0.500000000000     0.396690000000     0          
O        O      0.643285000000     0.927880000000     0.376350000000     0          
O        O      0.587130000000     0.964245000000     0.391525000000     0          
O        O      0.600250000000     0.905270000000     0.432120000000     0          
O        O      0.636330000000     0.964220000000     0.444630000000     0          
O        O      0.551825000000     0.785605000000     0.393345000000     0          
O        O      0.604620000000     0.785675000000     0.442035000000     0          
O        O      0.566850000000     0.844255000000     0.433025000000     0          
O        O      0.533515000000     0.905500000000     0.444125000000     0          
O        O      0.500000000000     0.964425000000     0.424740000000     0          
O        O      0.575250000000     0.880765000000     0.000000000000     0          
O        O      0.558365000000     0.750000000000     0.324985000000     0          
O        O      0.500000000000     0.750000000000     0.362545000000     0          
O        O      0.588835000000     0.500000000000     0.323005000000     0          
O        O      0.533260000000     0.500000000000     0.368245000000     0          
T        Si     0.882915000000     0.559760000000     0.411075000000     0          
T        Si     0.917140000000     0.690470000000     0.410595000000     0          
T        Si     0.931385000000     0.615740000000     0.452265000000     0          
T        Si     0.876390000000     0.500000000000     0.297250000000     0          
T        Si     0.925770000000     0.500000000000     0.368395000000     0          
T        Si     0.959430000000     0.750000000000     0.368735000000     0          
T        Si     0.908485000000     0.750000000000     0.296460000000     0          
T        Si     0.500000000000     0.570790000000     0.453360000000     0          
O        O      0.856715000000     0.572120000000     0.376350000000     0          
O        O      0.912870000000     0.535755000000     0.391525000000     0          
O        O      0.899750000000     0.594730000000     0.432120000000     0          
O        O      0.863670000000     0.535780000000     0.444630000000     0          
O        O      0.948175000000     0.714395000000     0.393345000000     0          
O        O      0.895380000000     0.714325000000     0.442035000000     0          
O        O      0.933150000000     0.655745000000     0.433025000000     0          
O        O      0.966485000000     0.594500000000     0.444125000000     0          
O        O      0.500000000000     0.535575000000     0.424740000000     0          
O        O      0.924750000000     0.619235000000     0.000000000000     0          
O        O      0.941635000000     0.750000000000     0.324985000000     0          
O        O      0.911165000000     0.500000000000     0.323005000000     0          
O        O      0.966740000000     0.500000000000     0.368245000000     0          
T        Si     0.882915000000     0.940240000000     0.411075000000     0          
T        Si     0.917140000000     0.809530000000     0.410595000000     0          
T        Si     0.931385000000     0.884260000000     0.452265000000     0          
O        O      0.856715000000     0.927880000000     0.376350000000     0          
O        O      0.912870000000     0.964245000000     0.391525000000     0          
O        O      0.899750000000     0.905270000000     0.432120000000     0          
O        O      0.863670000000     0.964220000000     0.444630000000     0          
O        O      0.948175000000     0.785605000000     0.393345000000     0          
O        O      0.895380000000     0.785675000000     0.442035000000     0          
O        O      0.933150000000     0.844255000000     0.433025000000     0          
O        O      0.966485000000     0.905500000000     0.444125000000     0          
T        Si     0.617085000000     0.559760000000     0.411075000000     0          
T        Si     0.582860000000     0.690470000000     0.410595000000     0          
T        Si     0.568615000000     0.615740000000     0.452265000000     0          
O        O      0.643285000000     0.572120000000     0.376350000000     0          
O        O      0.587130000000     0.535755000000     0.391525000000     0          
O        O      0.600250000000     0.594730000000     0.432120000000     0          
O        O      0.636330000000     0.535780000000     0.444630000000     0          
O        O      0.551825000000     0.714395000000     0.393345000000     0          
O        O      0.604620000000     0.714325000000     0.442035000000     0          
O        O      0.566850000000     0.655745000000     0.433025000000     0          
O        O      0.533515000000     0.594500000000     0.444125000000     0          
T        Si     0.882915000000     0.559760000000     0.088925000000     0          
T        Si     0.917140000000     0.690470000000     0.089405000000     0          
T        Si     0.931385000000     0.615740000000     0.047735000000     0          
O        O      0.856715000000     0.572120000000     0.123650000000     0          
O        O      0.912870000000     0.535755000000     0.108475000000     0          
O        O      0.899750000000     0.594730000000     0.067880000000     0          
O        O      0.863670000000     0.535780000000     0.055370000000     0          
O        O      0.948175000000     0.714395000000     0.106655000000     0          
O        O      0.895380000000     0.714325000000     0.057965000000     0          
O        O      0.933150000000     0.655745000000     0.066975000000     0          
O        O      0.966485000000     0.594500000000     0.055875000000     0          
T        Si     0.617085000000     0.940240000000     0.088925000000     0          
T        Si     0.582860000000     0.809530000000     0.089405000000     0          
T        Si     0.568615000000     0.884260000000     0.047735000000     0          
O        O      0.643285000000     0.927880000000     0.123650000000     0          
O        O      0.587130000000     0.964245000000     0.108475000000     0          
O        O      0.600250000000     0.905270000000     0.067880000000     0          
O        O      0.636330000000     0.964220000000     0.055370000000     0          
O        O      0.551825000000     0.785605000000     0.106655000000     0          
O        O      0.604620000000     0.785675000000     0.057965000000     0          
O        O      0.566850000000     0.844255000000     0.066975000000     0          
O        O      0.533515000000     0.905500000000     0.055875000000     0          
T        Si     0.867085000000     0.809760000000     0.338925000000     0          
T        Si     0.832860000000     0.940470000000     0.339405000000     0          
T        Si     0.818615000000     0.865740000000     0.297735000000     0          
T        Si     0.873610000000     0.750000000000     0.452750000000     0          
T        Si     0.824230000000     0.750000000000     0.381605000000     0          
T        Si     0.790570000000     0.500000000000     0.381265000000     0          
T        Si     0.841515000000     0.500000000000     0.453540000000     0          
T        Si     0.750000000000     0.820790000000     0.296640000000     0          
T        Si     0.750000000000     0.750000000000     0.353310000000     0          
O        O      0.893285000000     0.822120000000     0.373650000000     0          
O        O      0.837130000000     0.785755000000     0.358475000000     0          
O        O      0.850250000000     0.844730000000     0.317880000000     0          
O        O      0.886330000000     0.785780000000     0.305370000000     0          
O        O      0.801825000000     0.964395000000     0.356655000000     0          
O        O      0.854620000000     0.964325000000     0.307965000000     0          
O        O      0.816850000000     0.905745000000     0.316975000000     0          
O        O      0.750000000000     0.808545000000     0.250000000000     0          
O        O      0.783515000000     0.844500000000     0.305875000000     0          
O        O      0.750000000000     0.785575000000     0.325260000000     0          
O        O      0.825250000000     0.869235000000     0.250000000000     0          
O        O      0.808365000000     0.500000000000     0.425015000000     0          
O        O      0.750000000000     0.500000000000     0.387455000000     0          
O        O      0.838835000000     0.750000000000     0.426995000000     0          
O        O      0.864165000000     0.750000000000     0.000000000000     0          
O        O      0.783260000000     0.750000000000     0.381755000000     0          
O        O      0.829530000000     0.500000000000     0.000000000000     0          
T        Si     0.632915000000     0.690240000000     0.338925000000     0          
T        Si     0.667140000000     0.559530000000     0.339405000000     0          
T        Si     0.681385000000     0.634260000000     0.297735000000     0          
T        Si     0.626390000000     0.750000000000     0.452750000000     0          
T        Si     0.675770000000     0.750000000000     0.381605000000     0          
T        Si     0.709430000000     0.500000000000     0.381265000000     0          
T        Si     0.658485000000     0.500000000000     0.453540000000     0          
T        Si     0.750000000000     0.679210000000     0.296640000000     0          
O        O      0.606715000000     0.677880000000     0.373650000000     0          
O        O      0.662870000000     0.714245000000     0.358475000000     0          
O        O      0.649750000000     0.655270000000     0.317880000000     0          
O        O      0.613670000000     0.714220000000     0.305370000000     0          
O        O      0.698175000000     0.535605000000     0.356655000000     0          
O        O      0.645380000000     0.535675000000     0.307965000000     0          
O        O      0.683150000000     0.594255000000     0.316975000000     0          
O        O      0.750000000000     0.691455000000     0.250000000000     0          
O        O      0.716485000000     0.655500000000     0.305875000000     0          
O        O      0.750000000000     0.714425000000     0.325260000000     0          
O        O      0.674750000000     0.630765000000     0.250000000000     0          
O        O      0.691635000000     0.500000000000     0.425015000000     0          
O        O      0.661165000000     0.750000000000     0.426995000000     0          
O        O      0.635835000000     0.750000000000     0.000000000000     0          
O        O      0.716740000000     0.750000000000     0.381755000000     0          
O        O      0.670470000000     0.500000000000     0.000000000000     0          
T        Si     0.867085000000     0.690240000000     0.161075000000     0          
T        Si     0.832860000000     0.559530000000     0.160595000000     0          
T        Si     0.818615000000     0.634260000000     0.202265000000     0          
T        Si     0.873610000000     0.750000000000     0.047250000000     0          
T        Si     0.824230000000     0.750000000000     0.118395000000     0          
T        Si     0.790570000000     0.500000000000     0.118735000000     0          
T        Si     0.841515000000     0.500000000000     0.046460000000     0          
T        Si     0.750000000000     0.679210000000     0.203360000000     0          
T        Si     0.750000000000     0.750000000000     0.146690000000     0          
O        O      0.893285000000     0.677880000000     0.126350000000     0          
O        O      0.837130000000     0.714245000000     0.141525000000     0          
O        O      0.850250000000     0.655270000000     0.182120000000     0          
O        O      0.886330000000     0.714220000000     0.194630000000     0          
O        O      0.801825000000     0.535605000000     0.143345000000     0          
O        O      0.854620000000     0.535675000000     0.192035000000     0          
O        O      0.816850000000     0.594255000000     0.183025000000     0          
O        O      0.783515000000     0.655500000000     0.194125000000     0          
O        O      0.750000000000     0.714425000000     0.174740000000     0          
O        O      0.825250000000     0.630765000000     0.250000000000     0          
O        O      0.808365000000     0.500000000000     0.074985000000     0          
O        O      0.750000000000     0.500000000000     0.112545000000     0          
O        O      0.838835000000     0.750000000000     0.073005000000     0          
O        O      0.783260000000     0.750000000000     0.118245000000     0          
T        Si     0.632915000000     0.809760000000     0.161075000000     0          
T        Si     0.667140000000     0.940470000000     0.160595000000     0          
T        Si     0.681385000000     0.865740000000     0.202265000000     0          
T        Si     0.626390000000     0.750000000000     0.047250000000     0          
T        Si     0.675770000000     0.750000000000     0.118395000000     0          
T        Si     0.709430000000     0.500000000000     0.118735000000     0          
T        Si     0.658485000000     0.500000000000     0.046460000000     0          
T        Si     0.750000000000     0.820790000000     0.203360000000     0          
O        O      0.606715000000     0.822120000000     0.126350000000     0          
O        O      0.662870000000     0.785755000000     0.141525000000     0          
O        O      0.649750000000     0.844730000000     0.182120000000     0          
O        O      0.613670000000     0.785780000000     0.194630000000     0          
O        O      0.698175000000     0.964395000000     0.143345000000     0          
O        O      0.645380000000     0.964325000000     0.192035000000     0          
O        O      0.683150000000     0.905745000000     0.183025000000     0          
O        O      0.716485000000     0.844500000000     0.194125000000     0          
O        O      0.750000000000     0.785575000000     0.174740000000     0          
O        O      0.674750000000     0.869235000000     0.250000000000     0          
O        O      0.691635000000     0.500000000000     0.074985000000     0          
O        O      0.661165000000     0.750000000000     0.073005000000     0          
O        O      0.716740000000     0.750000000000     0.118245000000     0          
T        Si     0.632915000000     0.690240000000     0.161075000000     0          
T        Si     0.667140000000     0.559530000000     0.160595000000     0          
T        Si     0.681385000000     0.634260000000     0.202265000000     0          
O        O      0.606715000000     0.677880000000     0.126350000000     0          
O        O      0.662870000000     0.714245000000     0.141525000000     0          
O        O      0.649750000000     0.655270000000     0.182120000000     0          
O        O      0.613670000000     0.714220000000     0.194630000000     0          
O        O      0.698175000000     0.535605000000     0.143345000000     0          
O        O      0.645380000000     0.535675000000     0.192035000000     0          
O        O      0.683150000000     0.594255000000     0.183025000000     0          
O        O      0.716485000000     0.655500000000     0.194125000000     0          
T        Si     0.867085000000     0.809760000000     0.161075000000     0          
T        Si     0.832860000000     0.940470000000     0.160595000000     0          
T        Si     0.818615000000     0.865740000000     0.202265000000     0          
O        O      0.893285000000     0.822120000000     0.126350000000     0          
O        O      0.837130000000     0.785755000000     0.141525000000     0          
O        O      0.850250000000     0.844730000000     0.182120000000     0          
O        O      0.886330000000     0.785780000000     0.194630000000     0          
O        O      0.801825000000     0.964395000000     0.143345000000     0          
O        O      0.854620000000     0.964325000000     0.192035000000     0          
O        O      0.816850000000     0.905745000000     0.183025000000     0          
O        O      0.783515000000     0.844500000000     0.194125000000     0          
T        Si     0.632915000000     0.809760000000     0.338925000000     0          
T        Si     0.667140000000     0.940470000000     0.339405000000     0          
T        Si     0.681385000000     0.865740000000     0.297735000000     0          
O        O      0.606715000000     0.822120000000     0.373650000000     0          
O        O      0.662870000000     0.785755000000     0.358475000000     0          
O        O      0.649750000000     0.844730000000     0.317880000000     0          
O        O      0.613670000000     0.785780000000     0.305370000000     0          
O        O      0.698175000000     0.964395000000     0.356655000000     0          
O        O      0.645380000000     0.964325000000     0.307965000000     0          
O        O      0.683150000000     0.905745000000     0.316975000000     0          
O        O      0.716485000000     0.844500000000     0.305875000000     0          
T        Si     0.867085000000     0.690240000000     0.338925000000     0          
T        Si     0.832860000000     0.559530000000     0.339405000000     0          
T        Si     0.818615000000     0.634260000000     0.297735000000     0          
O        O      0.893285000000     0.677880000000     0.373650000000     0          
O        O      0.837130000000     0.714245000000     0.358475000000     0          
O        O      0.850250000000     0.655270000000     0.317880000000     0          
O        O      0.886330000000     0.714220000000     0.305370000000     0          
O        O      0.801825000000     0.535605000000     0.356655000000     0          
O        O      0.854620000000     0.535675000000     0.307965000000     0          
O        O      0.816850000000     0.594255000000     0.316975000000     0          
O        O      0.783515000000     0.655500000000     0.305875000000     0          
T        Si     0.617085000000     0.559760000000     0.588925000000     0          
T        Si     0.582860000000     0.690470000000     0.589405000000     0          
T        Si     0.568615000000     0.615740000000     0.547735000000     0          
T        Si     0.623610000000     0.500000000000     0.702750000000     0          
T        Si     0.574230000000     0.500000000000     0.631605000000     0          
T        Si     0.540570000000     0.750000000000     0.631265000000     0          
T        Si     0.591515000000     0.750000000000     0.703540000000     0          
T        Si     0.500000000000     0.570790000000     0.546640000000     0          
T        Si     0.500000000000     0.500000000000     0.603310000000     0          
O        O      0.643285000000     0.572120000000     0.623650000000     0          
O        O      0.587130000000     0.535755000000     0.608475000000     0          
O        O      0.600250000000     0.594730000000     0.567880000000     0          
O        O      0.636330000000     0.535780000000     0.555370000000     0          
O        O      0.551825000000     0.714395000000     0.606655000000     0          
O        O      0.604620000000     0.714325000000     0.557965000000     0          
O        O      0.566850000000     0.655745000000     0.566975000000     0          
O        O      0.500000000000     0.558545000000     0.500000000000     0          
O        O      0.533515000000     0.594500000000     0.555875000000     0          
O        O      0.500000000000     0.535575000000     0.575260000000     0          
O        O      0.575250000000     0.619235000000     0.500000000000     0          
O        O      0.558365000000     0.750000000000     0.675015000000     0          
O        O      0.500000000000     0.750000000000     0.637455000000     0          
O        O      0.588835000000     0.500000000000     0.676995000000     0          
O        O      0.614165000000     0.500000000000     0.750000000000     0          
O        O      0.533260000000     0.500000000000     0.631755000000     0          
O        O      0.579530000000     0.750000000000     0.750000000000     0          
T        Si     0.882915000000     0.940240000000     0.588925000000     0          
T        Si     0.917140000000     0.809530000000     0.589405000000     0          
T        Si     0.931385000000     0.884260000000     0.547735000000     0          
T        Si     0.876390000000     0.500000000000     0.702750000000     0          
T        Si     0.925770000000     0.500000000000     0.631605000000     0          
T        Si     0.959430000000     0.750000000000     0.631265000000     0          
T        Si     0.908485000000     0.750000000000     0.703540000000     0          
T        Si     0.500000000000     0.929210000000     0.546640000000     0          
O        O      0.856715000000     0.927880000000     0.623650000000     0          
O        O      0.912870000000     0.964245000000     0.608475000000     0          
O        O      0.899750000000     0.905270000000     0.567880000000     0          
O        O      0.863670000000     0.964220000000     0.555370000000     0          
O        O      0.948175000000     0.785605000000     0.606655000000     0          
O        O      0.895380000000     0.785675000000     0.557965000000     0          
O        O      0.933150000000     0.844255000000     0.566975000000     0          
O        O      0.500000000000     0.941455000000     0.500000000000     0          
O        O      0.966485000000     0.905500000000     0.555875000000     0          
O        O      0.500000000000     0.964425000000     0.575260000000     0          
O        O      0.924750000000     0.880765000000     0.500000000000     0          
O        O      0.941635000000     0.750000000000     0.675015000000     0          
O        O      0.911165000000     0.500000000000     0.676995000000     0          
O        O      0.885835000000     0.500000000000     0.750000000000     0          
O        O      0.966740000000     0.500000000000     0.631755000000     0          
O        O      0.920470000000     0.750000000000     0.750000000000     0          
T        Si     0.617085000000     0.940240000000     0.911075000000     0          
T        Si     0.582860000000     0.809530000000     0.910595000000     0          
T        Si     0.568615000000     0.884260000000     0.952265000000     0          
T        Si     0.623610000000     0.500000000000     0.797250000000     0          
T        Si     0.574230000000     0.500000000000     0.868395000000     0          
T        Si     0.540570000000     0.750000000000     0.868735000000     0          
T        Si     0.591515000000     0.750000000000     0.796460000000     0          
T        Si     0.500000000000     0.929210000000     0.953360000000     0          
T        Si     0.500000000000     0.500000000000     0.896690000000     0          
O        O      0.643285000000     0.927880000000     0.876350000000     0          
O        O      0.587130000000     0.964245000000     0.891525000000     0          
O        O      0.600250000000     0.905270000000     0.932120000000     0          
O        O      0.636330000000     0.964220000000     0.944630000000     0          
O        O      0.551825000000     0.785605000000     0.893345000000     0          
O        O      0.604620000000     0.785675000000     0.942035000000     0          
O        O      0.566850000000     0.844255000000     0.933025000000     0          
O        O      0.533515000000     0.905500000000     0.944125000000     0          
O        O      0.500000000000     0.964425000000     0.924740000000     0          
O        O      0.575250000000     0.880765000000     0.500000000000     0          
O        O      0.558365000000     0.750000000000     0.824985000000     0          
O        O      0.500000000000     0.750000000000     0.862545000000     0          
O        O      0.588835000000     0.500000000000     0.823005000000     0          
O        O      0.533260000000     0.500000000000     0.868245000000     0          
T        Si     0.882915000000     0.559760000000     0.911075000000     0          
T        Si     0.917140000000     0.690470000000     0.910595000000     0          
T        Si     0.931385000000     0.615740000000     0.952265000000     0          
T        Si     0.876390000000     0.500000000000     0.797250000000     0          
T        Si     0.925770000000     0.500000000000     0.868395000000     0          
T        Si     0.959430000000     0.750000000000     0.868735000000     0          
T        Si     0.908485000000     0.750000000000     0.796460000000     0          
T        Si     0.500000000000     0.570790000000     0.953360000000     0          
O        O      0.856715000000     0.572120000000     0.876350000000     0          
O        O      0.912870000000     0.535755000000     0.891525000000     0          
O        O      0.899750000000     0.594730000000     0.932120000000     0          
O        O      0.863670000000     0.535780000000     0.944630000000     0          
O        O      0.948175000000     0.714395000000     0.893345000000     0          
O        O      0.895380000000     0.714325000000     0.942035000000     0          
O        O      0.933150000000     0.655745000000     0.933025000000     0          
O        O      0.966485000000     0.594500000000     0.944125000000     0          
O        O      0.500000000000     0.535575000000     0.924740000000     0          
O        O      0.924750000000     0.619235000000     0.500000000000     0          
O        O      0.941635000000     0.750000000000     0.824985000000     0          
O        O      0.911165000000     0.500000000000     0.823005000000     0          
O        O      0.966740000000     0.500000000000     0.868245000000     0          
T        Si     0.882915000000     0.940240000000     0.911075000000     0          
T        Si     0.917140000000     0.809530000000     0.910595000000     0          
T        Si     0.931385000000     0.884260000000     0.952265000000     0          
O        O      0.856715000000     0.927880000000     0.876350000000     0          
O        O      0.912870000000     0.964245000000     0.891525000000     0          
O        O      0.899750000000     0.905270000000     0.932120000000     0          
O        O      0.863670000000     0.964220000000     0.944630000000     0          
O        O      0.948175000000     0.785605000000     0.893345000000     0          
O        O      0.895380000000     0.785675000000     0.942035000000     0          
O        O      0.933150000000     0.844255000000     0.933025000000     0          
O        O      0.966485000000     0.905500000000     0.944125000000     0          
T        Si     0.617085000000     0.559760000000     0.911075000000     0          
T        Si     0.582860000000     0.690470000000     0.910595000000     0          
T        Si     0.568615000000     0.615740000000     0.952265000000     0          
O        O      0.643285000000     0.572120000000     0.876350000000     0          
O        O      0.587130000000     0.535755000000     0.891525000000     0          
O        O      0.600250000000     0.594730000000     0.932120000000     0          
O        O      0.636330000000     0.535780000000     0.944630000000     0          
O        O      0.551825000000     0.714395000000     0.893345000000     0          
O        O      0.604620000000     0.714325000000     0.942035000000     0          
O        O      0.566850000000     0.655745000000     0.933025000000     0          
O        O      0.533515000000     0.594500000000     0.944125000000     0          
T        Si     0.882915000000     0.559760000000     0.588925000000     0          
T        Si     0.917140000000     0.690470000000     0.589405000000     0          
T        Si     0.931385000000     0.615740000000     0.547735000000     0          
O        O      0.856715000000     0.572120000000     0.623650000000     0          
O        O      0.912870000000     0.535755000000     0.608475000000     0          
O        O      0.899750000000     0.594730000000     0.567880000000     0          
O        O      0.863670000000     0.535780000000     0.555370000000     0          
O        O      0.948175000000     0.714395000000     0.606655000000     0          
O        O      0.895380000000     0.714325000000     0.557965000000     0          
O        O      0.933150000000     0.655745000000     0.566975000000     0          
O        O      0.966485000000     0.594500000000     0.555875000000     0          
T        Si     0.617085000000     0.940240000000     0.588925000000     0          
T        Si     0.582860000000     0.809530000000     0.589405000000     0          
T        Si     0.568615000000     0.884260000000     0.547735000000     0          
O        O      0.643285000000     0.927880000000     0.623650000000     0          
O        O      0.587130000000     0.964245000000     0.608475000000     0          
O        O      0.600250000000     0.905270000000     0.567880000000     0          
O        O      0.636330000000     0.964220000000     0.555370000000     0          
O        O      0.551825000000     0.785605000000     0.606655000000     0          
O        O      0.604620000000     0.785675000000     0.557965000000     0          
O        O      0.566850000000     0.844255000000     0.566975000000     0          
O        O      0.533515000000     0.905500000000     0.555875000000     0          
T        Si     0.867085000000     0.809760000000     0.838925000000     0          
T        Si     0.832860000000     0.940470000000     0.839405000000     0          
T        Si     0.818615000000     0.865740000000     0.797735000000     0          
T        Si     0.873610000000     0.750000000000     0.952750000000     0          
T        Si     0.824230000000     0.750000000000     0.881605000000     0          
T        Si     0.790570000000     0.500000000000     0.881265000000     0          
T        Si     0.841515000000     0.500000000000     0.953540000000     0          
T        Si     0.750000000000     0.820790000000     0.796640000000     0          
T        Si     0.750000000000     0.750000000000     0.853310000000     0          
O        O      0.893285000000     0.822120000000     0.873650000000     0          
O        O      0.837130000000     0.785755000000     0.858475000000     0          
O        O      0.850250000000     0.844730000000     0.817880000000     0          
O        O      0.886330000000     0.785780000000     0.805370000000     0          
O        O      0.801825000000     0.964395000000     0.856655000000     0          
O        O      0.854620000000     0.964325000000     0.807965000000     0          
O        O      0.816850000000     0.905745000000     0.816975000000     0          
O        O      0.750000000000     0.808545000000     0.750000000000     0          
O        O      0.783515000000     0.844500000000     0.805875000000     0          
O        O      0.750000000000     0.785575000000     0.825260000000     0          
O        O      0.825250000000     0.869235000000     0.750000000000     0          
O        O      0.808365000000     0.500000000000     0.925015000000     0          
O        O      0.750000000000     0.500000000000     0.887455000000     0          
O        O      0.838835000000     0.750000000000     0.926995000000     0          
O        O      0.864165000000     0.750000000000     0.500000000000     0          
O        O      0.783260000000     0.750000000000     0.881755000000     0          
O        O      0.829530000000     0.500000000000     0.500000000000     0          
T        Si     0.632915000000     0.690240000000     0.838925000000     0          
T        Si     0.667140000000     0.559530000000     0.839405000000     0          
T        Si     0.681385000000     0.634260000000     0.797735000000     0          
T        Si     0.626390000000     0.750000000000     0.952750000000     0          
T        Si     0.675770000000     0.750000000000     0.881605000000     0          
T        Si     0.709430000000     0.500000000000     0.881265000000     0          
T        Si     0.658485000000     0.500000000000     0.953540000000     0          
T        Si     0.750000000000     0.679210000000     0.796640000000     0          
O        O      0.606715000000     0.677880000000     0.873650000000     0          
O        O      0.662870000000     0.714245000000     0.858475000000     0          
O        O      0.649750000000     0.655270000000     0.817880000000     0          
O        O      0.613670000000     0.714220000000     0.805370000000     0          
O        O      0.698175000000     0.535605000000     0.856655000000     0          
O        O      0.645380000000     0.535675000000     0.807965000000     0          
O        O      0.683150000000     0.594255000000     0.816975000000     0          
O        O      0.750000000000     0.691455000000     0.750000000000     0          
O        O      0.716485000000     0.655500000000     0.805875000000     0          
O        O      0.750000000000     0.714425000000     0.825260000000     0          
O        O      0.674750000000     0.630765000000     0.750000000000     0          
O        O      0.691635000000     0.500000000000     0.925015000000     0          
O        O      0.661165000000     0.750000000000     0.926995000000     0          
O        O      0.635835000000     0.750000000000     0.500000000000     0          
O        O      0.716740000000     0.750000000000     0.881755000000     0          
O        O      0.670470000000     0.500000000000     0.500000000000     0          
T        Si     0.867085000000     0.690240000000     0.661075000000     0          
T        Si     0.832860000000     0.559530000000     0.660595000000     0          
T        Si     0.818615000000     0.634260000000     0.702265000000     0          
T        Si     0.873610000000     0.750000000000     0.547250000000     0          
T        Si     0.824230000000     0.750000000000     0.618395000000     0          
T        Si     0.790570000000     0.500000000000     0.618735000000     0          
T        Si     0.841515000000     0.500000000000     0.546460000000     0          
T        Si     0.750000000000     0.679210000000     0.703360000000     0          
T        Si     0.750000000000     0.750000000000     0.646690000000     0          
O        O      0.893285000000     0.677880000000     0.626350000000     0          
O        O      0.837130000000     0.714245000000     0.641525000000     0          
O        O      0.850250000000     0.655270000000     0.682120000000     0          
O        O      0.886330000000     0.714220000000     0.694630000000     0          
O        O      0.801825000000     0.535605000000     0.643345000000     0          
O        O      0.854620000000     0.535675000000     0.692035000000     0          
O        O      0.816850000000     0.594255000000     0.683025000000     0          
O        O      0.783515000000     0.655500000000     0.694125000000     0          
O        O      0.750000000000     0.714425000000     0.674740000000     0          
O        O      0.825250000000     0.630765000000     0.750000000000     0          
O        O      0.808365000000     0.500000000000     0.574985000000     0          
O        O      0.750000000000     0.500000000000     0.612545000000     0          
O        O      0.838835000000     0.750000000000     0.573005000000     0          
O        O      0.783260000000     0.750000000000     0.618245000000     0          
T        Si     0.632915000000     0.809760000000     0.661075000000     0          
T        Si     0.667140000000     0.940470000000     0.660595000000     0          
T        Si     0.681385000000     0.865740000000     0.702265000000     0          
T        Si     0.626390000000     0.750000000000     0.547250000000     0          
T        Si     0.675770000000     0.750000000000     0.618395000000     0          
T        Si     0.709430000000     0.500000000000     0.618735000000     0          
T        Si     0.658485000000     0.500000000000     0.546460000000     0          
T        Si     0.750000000000     0.820790000000     0.703360000000     0          
O        O      0.606715000000     0.822120000000     0.626350000000     0          
O        O      0.662870000000     0.785755000000     0.641525000000     0          
O        O      0.649750000000     0.844730000000     0.682120000000     0          
O        O      0.613670000000     0.785780000000     0.694630000000     0          
O        O      0.698175000000     0.964395000000     0.643345000000     0          
O        O      0.645380000000     0.964325000000     0.692035000000     0          
O        O      0.683150000000     0.905745000000     0.683025000000     0          
O        O      0.716485000000     0.844500000000     0.694125000000     0          
O        O      0.750000000000     0.785575000000     0.674740000000     0          
O        O      0.674750000000     0.869235000000     0.750000000000     0          
O        O      0.691635000000     0.500000000000     0.574985000000     0          
O        O      0.661165000000     0.750000000000     0.573005000000     0          
O        O      0.716740000000     0.750000000000     0.618245000000     0          
T        Si     0.632915000000     0.690240000000     0.661075000000     0          
T        Si     0.667140000000     0.559530000000     0.660595000000     0          
T        Si     0.681385000000     0.634260000000     0.702265000000     0          
O        O      0.606715000000     0.677880000000     0.626350000000     0          
O        O      0.662870000000     0.714245000000     0.641525000000     0          
O        O      0.649750000000     0.655270000000     0.682120000000     0          
O        O      0.613670000000     0.714220000000     0.694630000000     0          
O        O      0.698175000000     0.535605000000     0.643345000000     0          
O        O      0.645380000000     0.535675000000     0.692035000000     0          
O        O      0.683150000000     0.594255000000     0.683025000000     0          
O        O      0.716485000000     0.655500000000     0.694125000000     0          
T        Si     0.867085000000     0.809760000000     0.661075000000     0          
T        Si     0.832860000000     0.940470000000     0.660595000000     0          
T        Si     0.818615000000     0.865740000000     0.702265000000     0          
O        O      0.893285000000     0.822120000000     0.626350000000     0          
O        O      0.837130000000     0.785755000000     0.641525000000     0          
O        O      0.850250000000     0.844730000000     0.682120000000     0          
O        O      0.886330000000     0.785780000000     0.694630000000     0          
O        O      0.801825000000     0.964395000000     0.643345000000     0          
O        O      0.854620000000     0.964325000000     0.692035000000     0          
O        O      0.816850000000     0.905745000000     0.683025000000     0          
O        O      0.783515000000     0.844500000000     0.694125000000     0          
T        Si     0.632915000000     0.809760000000     0.838925000000     0          
T        Si     0.667140000000     0.940470000000     0.839405000000     0          
T        Si     0.681385000000     0.865740000000     0.797735000000     0          
O        O      0.606715000000     0.822120000000     0.873650000000     0          
O        O      0.662870000000     0.785755000000     0.858475000000     0          
O        O      0.649750000000     0.844730000000     0.817880000000     0          
O        O      0.613670000000     0.785780000000     0.805370000000     0          
O        O      0.698175000000     0.964395000000     0.856655000000     0          
O        O      0.645380000000     0.964325000000     0.807965000000     0          
O        O      0.683150000000     0.905745000000     0.816975000000     0          
O        O      0.716485000000     0.844500000000     0.805875000000     0          
T        Si     0.867085000000     0.690240000000     0.838925000000     0          
T        Si     0.832860000000     0.559530000000     0.839405000000     0          
T        Si     0.818615000000     0.634260000000     0.797735000000     0          
O        O      0.893285000000     0.677880000000     0.873650000000     0          
O        O      0.837130000000     0.714245000000     0.858475000000     0          
O        O      0.850250000000     0.655270000000     0.817880000000     0          
O        O      0.886330000000     0.714220000000     0.805370000000     0          
O        O      0.801825000000     0.535605000000     0.856655000000     0          
O        O      0.854620000000     0.535675000000     0.807965000000     0          
O        O      0.816850000000     0.594255000000     0.816975000000     0          
O        O      0.783515000000     0.655500000000     0.805875000000     0          


