data_zeolite

_audit_creation_method RASPA-1.0
_audit_creation_date 2021-1-11
_audit_author_name ''

_cell_length_a    32.826
_cell_length_b    28.2728
_cell_length_c    30.8091
_cell_angle_alpha 90
_cell_angle_beta  119.27
_cell_angle_gamma 90
_cell_volume      24942.8

_symmetry_cell_setting          monoclinic
_symmetry_space_group_name_Hall 'P 1'
_symmetry_space_group_name_H-M  'P 1'
_symmetry_Int_Tables_number     1

_symmetry_equiv_pos_as_xyz 'x,y,z'

loop_
_atom_site_label
_atom_site_type_symbol
_atom_site_fract_x
_atom_site_fract_y
_atom_site_fract_z
_atom_site_charge
T        Si     0.210942500000     0.337790000000     0.120185000000     0          
T        Si     0.053165000000     0.347445000000     0.305515000000     0          
T        Si     0.174545000000     0.473775000000     0.155325000000     0          
T        Si     0.145137500000     0.314130000000     0.210360000000     0          
T        Si     0.213592500000     0.386825000000     0.209615000000     0          
T        Si     0.146432500000     0.414230000000     0.058855000000     0          
T        Si     0.054740000000     0.322330000000     0.118350000000     0          
T        Si     0.176285000000     0.247905000000     0.152945000000     0          
O        O      0.041767500000     0.298600000000     0.324410000000     0          
O        O      0.090770000000     0.336840000000     0.287455000000     0          
O        O      0.005950000000     0.371000000000     0.262675000000     0          
O        O      0.089052500000     0.313610000000     0.176850000000     0          
O        O      0.075572500000     0.384670000000     0.350890000000     0          
O        O      0.166075000000     0.361000000000     0.073545000000     0          
O        O      0.200785000000     0.286000000000     0.134310000000     0          
O        O      0.204397500000     0.443055000000     0.205090000000     0          
O        O      0.166187500000     0.269750000000     0.195060000000     0          
O        O      0.158465000000     0.314155000000     0.268055000000     0          
O        O      0.165730000000     0.361430000000     0.199130000000     0          
O        O      0.171797500000     0.446605000000     0.108050000000     0          
O        O      0.002940000000     0.335585000000     0.107435000000     0          
O        O      0.198480000000     0.024905000000     0.162070000000     0          
O        O      0.121877500000     0.481645000000     0.144760000000     0          
O        O      0.226815000000     0.371965000000     0.167570000000     0          
T        Si     0.039057500000     0.087790000000     0.129815000000     0          
T        Si     0.196835000000     0.097445000000     0.444485000000     0          
T        Si     0.075455000000     0.223775000000     0.094675000000     0          
T        Si     0.104862500000     0.064130000000     0.039640000000     0          
T        Si     0.036407500000     0.136825000000     0.040385000000     0          
T        Si     0.103567500000     0.164230000000     0.191145000000     0          
T        Si     0.195260000000     0.072330000000     0.131650000000     0          
T        Si     0.073715000000     0.497905000000     0.097055000000     0          
O        O      0.208232500000     0.048600000000     0.425590000000     0          
O        O      0.159230000000     0.086840000000     0.462545000000     0          
O        O      0.244050000000     0.121000000000     0.487325000000     0          
O        O      0.160947500000     0.063610000000     0.073150000000     0          
O        O      0.174427500000     0.134670000000     0.399110000000     0          
O        O      0.083925000000     0.111000000000     0.176455000000     0          
O        O      0.049215000000     0.036000000000     0.115690000000     0          
O        O      0.045602500000     0.193055000000     0.044910000000     0          
O        O      0.083812500000     0.019750000000     0.054940000000     0          
O        O      0.091535000000     0.064155000000     0.481945000000     0          
O        O      0.084270000000     0.111430000000     0.050870000000     0          
O        O      0.078202500000     0.196605000000     0.141950000000     0          
O        O      0.247060000000     0.085585000000     0.142565000000     0          
O        O      0.051520000000     0.274905000000     0.087930000000     0          
O        O      0.128122500000     0.231645000000     0.105240000000     0          
O        O      0.023185000000     0.121965000000     0.082430000000     0          
T        Si     0.039057500000     0.162210000000     0.379815000000     0          
T        Si     0.196835000000     0.152555000000     0.194485000000     0          
T        Si     0.075455000000     0.026225000000     0.344675000000     0          
T        Si     0.104862500000     0.185870000000     0.289640000000     0          
T        Si     0.036407500000     0.113175000000     0.290385000000     0          
T        Si     0.103567500000     0.085770000000     0.441145000000     0          
T        Si     0.195260000000     0.177670000000     0.381650000000     0          
T        Si     0.073715000000     0.252095000000     0.347055000000     0          
O        O      0.208232500000     0.201400000000     0.175590000000     0          
O        O      0.159230000000     0.163160000000     0.212545000000     0          
O        O      0.244050000000     0.129000000000     0.237325000000     0          
O        O      0.160947500000     0.186390000000     0.323150000000     0          
O        O      0.174427500000     0.115330000000     0.149110000000     0          
O        O      0.083925000000     0.139000000000     0.426455000000     0          
O        O      0.049215000000     0.214000000000     0.365690000000     0          
O        O      0.045602500000     0.056945000000     0.294910000000     0          
O        O      0.083812500000     0.230250000000     0.304940000000     0          
O        O      0.091535000000     0.185845000000     0.231945000000     0          
O        O      0.084270000000     0.138570000000     0.300870000000     0          
O        O      0.078202500000     0.053395000000     0.391950000000     0          
O        O      0.247060000000     0.164415000000     0.392565000000     0          
O        O      0.051520000000     0.475095000000     0.337930000000     0          
O        O      0.128122500000     0.018355000000     0.355240000000     0          
O        O      0.023185000000     0.128035000000     0.332430000000     0          
T        Si     0.210942500000     0.412210000000     0.370185000000     0          
T        Si     0.053165000000     0.402555000000     0.055515000000     0          
T        Si     0.174545000000     0.276225000000     0.405325000000     0          
T        Si     0.145137500000     0.435870000000     0.460360000000     0          
T        Si     0.213592500000     0.363175000000     0.459615000000     0          
T        Si     0.146432500000     0.335770000000     0.308855000000     0          
T        Si     0.054740000000     0.427670000000     0.368350000000     0          
T        Si     0.176285000000     0.002095000000     0.402945000000     0          
O        O      0.041767500000     0.451400000000     0.074410000000     0          
O        O      0.090770000000     0.413160000000     0.037455000000     0          
O        O      0.005950000000     0.379000000000     0.012675000000     0          
O        O      0.089052500000     0.436390000000     0.426850000000     0          
O        O      0.075572500000     0.365330000000     0.100890000000     0          
O        O      0.166075000000     0.389000000000     0.323545000000     0          
O        O      0.200785000000     0.464000000000     0.384310000000     0          
O        O      0.204397500000     0.306945000000     0.455090000000     0          
O        O      0.166187500000     0.480250000000     0.445060000000     0          
O        O      0.158465000000     0.435845000000     0.018055000000     0          
O        O      0.165730000000     0.388570000000     0.449130000000     0          
O        O      0.171797500000     0.303395000000     0.358050000000     0          
O        O      0.002940000000     0.414415000000     0.357435000000     0          
O        O      0.198480000000     0.225095000000     0.412070000000     0          
O        O      0.121877500000     0.268355000000     0.394760000000     0          
O        O      0.226815000000     0.378035000000     0.417570000000     0          
T        Si     0.210942500000     0.337790000000     0.620185000000     0          
T        Si     0.053165000000     0.347445000000     0.805515000000     0          
T        Si     0.174545000000     0.473775000000     0.655325000000     0          
T        Si     0.145137500000     0.314130000000     0.710360000000     0          
T        Si     0.213592500000     0.386825000000     0.709615000000     0          
T        Si     0.146432500000     0.414230000000     0.558855000000     0          
T        Si     0.054740000000     0.322330000000     0.618350000000     0          
T        Si     0.176285000000     0.247905000000     0.652945000000     0          
O        O      0.041767500000     0.298600000000     0.824410000000     0          
O        O      0.090770000000     0.336840000000     0.787455000000     0          
O        O      0.005950000000     0.371000000000     0.762675000000     0          
O        O      0.089052500000     0.313610000000     0.676850000000     0          
O        O      0.075572500000     0.384670000000     0.850890000000     0          
O        O      0.166075000000     0.361000000000     0.573545000000     0          
O        O      0.200785000000     0.286000000000     0.634310000000     0          
O        O      0.204397500000     0.443055000000     0.705090000000     0          
O        O      0.166187500000     0.269750000000     0.695060000000     0          
O        O      0.158465000000     0.314155000000     0.768055000000     0          
O        O      0.165730000000     0.361430000000     0.699130000000     0          
O        O      0.171797500000     0.446605000000     0.608050000000     0          
O        O      0.002940000000     0.335585000000     0.607435000000     0          
O        O      0.198480000000     0.024905000000     0.662070000000     0          
O        O      0.121877500000     0.481645000000     0.644760000000     0          
O        O      0.226815000000     0.371965000000     0.667570000000     0          
T        Si     0.039057500000     0.087790000000     0.629815000000     0          
T        Si     0.196835000000     0.097445000000     0.944485000000     0          
T        Si     0.075455000000     0.223775000000     0.594675000000     0          
T        Si     0.104862500000     0.064130000000     0.539640000000     0          
T        Si     0.036407500000     0.136825000000     0.540385000000     0          
T        Si     0.103567500000     0.164230000000     0.691145000000     0          
T        Si     0.195260000000     0.072330000000     0.631650000000     0          
T        Si     0.073715000000     0.497905000000     0.597055000000     0          
O        O      0.208232500000     0.048600000000     0.925590000000     0          
O        O      0.159230000000     0.086840000000     0.962545000000     0          
O        O      0.244050000000     0.121000000000     0.987325000000     0          
O        O      0.160947500000     0.063610000000     0.573150000000     0          
O        O      0.174427500000     0.134670000000     0.899110000000     0          
O        O      0.083925000000     0.111000000000     0.676455000000     0          
O        O      0.049215000000     0.036000000000     0.615690000000     0          
O        O      0.045602500000     0.193055000000     0.544910000000     0          
O        O      0.083812500000     0.019750000000     0.554940000000     0          
O        O      0.091535000000     0.064155000000     0.981945000000     0          
O        O      0.084270000000     0.111430000000     0.550870000000     0          
O        O      0.078202500000     0.196605000000     0.641950000000     0          
O        O      0.247060000000     0.085585000000     0.642565000000     0          
O        O      0.051520000000     0.274905000000     0.587930000000     0          
O        O      0.128122500000     0.231645000000     0.605240000000     0          
O        O      0.023185000000     0.121965000000     0.582430000000     0          
T        Si     0.039057500000     0.162210000000     0.879815000000     0          
T        Si     0.196835000000     0.152555000000     0.694485000000     0          
T        Si     0.075455000000     0.026225000000     0.844675000000     0          
T        Si     0.104862500000     0.185870000000     0.789640000000     0          
T        Si     0.036407500000     0.113175000000     0.790385000000     0          
T        Si     0.103567500000     0.085770000000     0.941145000000     0          
T        Si     0.195260000000     0.177670000000     0.881650000000     0          
T        Si     0.073715000000     0.252095000000     0.847055000000     0          
O        O      0.208232500000     0.201400000000     0.675590000000     0          
O        O      0.159230000000     0.163160000000     0.712545000000     0          
O        O      0.244050000000     0.129000000000     0.737325000000     0          
O        O      0.160947500000     0.186390000000     0.823150000000     0          
O        O      0.174427500000     0.115330000000     0.649110000000     0          
O        O      0.083925000000     0.139000000000     0.926455000000     0          
O        O      0.049215000000     0.214000000000     0.865690000000     0          
O        O      0.045602500000     0.056945000000     0.794910000000     0          
O        O      0.083812500000     0.230250000000     0.804940000000     0          
O        O      0.091535000000     0.185845000000     0.731945000000     0          
O        O      0.084270000000     0.138570000000     0.800870000000     0          
O        O      0.078202500000     0.053395000000     0.891950000000     0          
O        O      0.247060000000     0.164415000000     0.892565000000     0          
O        O      0.051520000000     0.475095000000     0.837930000000     0          
O        O      0.128122500000     0.018355000000     0.855240000000     0          
O        O      0.023185000000     0.128035000000     0.832430000000     0          
T        Si     0.210942500000     0.412210000000     0.870185000000     0          
T        Si     0.053165000000     0.402555000000     0.555515000000     0          
T        Si     0.174545000000     0.276225000000     0.905325000000     0          
T        Si     0.145137500000     0.435870000000     0.960360000000     0          
T        Si     0.213592500000     0.363175000000     0.959615000000     0          
T        Si     0.146432500000     0.335770000000     0.808855000000     0          
T        Si     0.054740000000     0.427670000000     0.868350000000     0          
T        Si     0.176285000000     0.002095000000     0.902945000000     0          
O        O      0.041767500000     0.451400000000     0.574410000000     0          
O        O      0.090770000000     0.413160000000     0.537455000000     0          
O        O      0.005950000000     0.379000000000     0.512675000000     0          
O        O      0.089052500000     0.436390000000     0.926850000000     0          
O        O      0.075572500000     0.365330000000     0.600890000000     0          
O        O      0.166075000000     0.389000000000     0.823545000000     0          
O        O      0.200785000000     0.464000000000     0.884310000000     0          
O        O      0.204397500000     0.306945000000     0.955090000000     0          
O        O      0.166187500000     0.480250000000     0.945060000000     0          
O        O      0.158465000000     0.435845000000     0.518055000000     0          
O        O      0.165730000000     0.388570000000     0.949130000000     0          
O        O      0.171797500000     0.303395000000     0.858050000000     0          
O        O      0.002940000000     0.414415000000     0.857435000000     0          
O        O      0.198480000000     0.225095000000     0.912070000000     0          
O        O      0.121877500000     0.268355000000     0.894760000000     0          
O        O      0.226815000000     0.378035000000     0.917570000000     0          
T        Si     0.210942500000     0.837790000000     0.120185000000     0          
T        Si     0.053165000000     0.847445000000     0.305515000000     0          
T        Si     0.174545000000     0.973775000000     0.155325000000     0          
T        Si     0.145137500000     0.814130000000     0.210360000000     0          
T        Si     0.213592500000     0.886825000000     0.209615000000     0          
T        Si     0.146432500000     0.914230000000     0.058855000000     0          
T        Si     0.054740000000     0.822330000000     0.118350000000     0          
T        Si     0.176285000000     0.747905000000     0.152945000000     0          
O        O      0.041767500000     0.798600000000     0.324410000000     0          
O        O      0.090770000000     0.836840000000     0.287455000000     0          
O        O      0.005950000000     0.871000000000     0.262675000000     0          
O        O      0.089052500000     0.813610000000     0.176850000000     0          
O        O      0.075572500000     0.884670000000     0.350890000000     0          
O        O      0.166075000000     0.861000000000     0.073545000000     0          
O        O      0.200785000000     0.786000000000     0.134310000000     0          
O        O      0.204397500000     0.943055000000     0.205090000000     0          
O        O      0.166187500000     0.769750000000     0.195060000000     0          
O        O      0.158465000000     0.814155000000     0.268055000000     0          
O        O      0.165730000000     0.861430000000     0.199130000000     0          
O        O      0.171797500000     0.946605000000     0.108050000000     0          
O        O      0.002940000000     0.835585000000     0.107435000000     0          
O        O      0.198480000000     0.524905000000     0.162070000000     0          
O        O      0.121877500000     0.981645000000     0.144760000000     0          
O        O      0.226815000000     0.871965000000     0.167570000000     0          
T        Si     0.039057500000     0.587790000000     0.129815000000     0          
T        Si     0.196835000000     0.597445000000     0.444485000000     0          
T        Si     0.075455000000     0.723775000000     0.094675000000     0          
T        Si     0.104862500000     0.564130000000     0.039640000000     0          
T        Si     0.036407500000     0.636825000000     0.040385000000     0          
T        Si     0.103567500000     0.664230000000     0.191145000000     0          
T        Si     0.195260000000     0.572330000000     0.131650000000     0          
T        Si     0.073715000000     0.997905000000     0.097055000000     0          
O        O      0.208232500000     0.548600000000     0.425590000000     0          
O        O      0.159230000000     0.586840000000     0.462545000000     0          
O        O      0.244050000000     0.621000000000     0.487325000000     0          
O        O      0.160947500000     0.563610000000     0.073150000000     0          
O        O      0.174427500000     0.634670000000     0.399110000000     0          
O        O      0.083925000000     0.611000000000     0.176455000000     0          
O        O      0.049215000000     0.536000000000     0.115690000000     0          
O        O      0.045602500000     0.693055000000     0.044910000000     0          
O        O      0.083812500000     0.519750000000     0.054940000000     0          
O        O      0.091535000000     0.564155000000     0.481945000000     0          
O        O      0.084270000000     0.611430000000     0.050870000000     0          
O        O      0.078202500000     0.696605000000     0.141950000000     0          
O        O      0.247060000000     0.585585000000     0.142565000000     0          
O        O      0.051520000000     0.774905000000     0.087930000000     0          
O        O      0.128122500000     0.731645000000     0.105240000000     0          
O        O      0.023185000000     0.621965000000     0.082430000000     0          
T        Si     0.039057500000     0.662210000000     0.379815000000     0          
T        Si     0.196835000000     0.652555000000     0.194485000000     0          
T        Si     0.075455000000     0.526225000000     0.344675000000     0          
T        Si     0.104862500000     0.685870000000     0.289640000000     0          
T        Si     0.036407500000     0.613175000000     0.290385000000     0          
T        Si     0.103567500000     0.585770000000     0.441145000000     0          
T        Si     0.195260000000     0.677670000000     0.381650000000     0          
T        Si     0.073715000000     0.752095000000     0.347055000000     0          
O        O      0.208232500000     0.701400000000     0.175590000000     0          
O        O      0.159230000000     0.663160000000     0.212545000000     0          
O        O      0.244050000000     0.629000000000     0.237325000000     0          
O        O      0.160947500000     0.686390000000     0.323150000000     0          
O        O      0.174427500000     0.615330000000     0.149110000000     0          
O        O      0.083925000000     0.639000000000     0.426455000000     0          
O        O      0.049215000000     0.714000000000     0.365690000000     0          
O        O      0.045602500000     0.556945000000     0.294910000000     0          
O        O      0.083812500000     0.730250000000     0.304940000000     0          
O        O      0.091535000000     0.685845000000     0.231945000000     0          
O        O      0.084270000000     0.638570000000     0.300870000000     0          
O        O      0.078202500000     0.553395000000     0.391950000000     0          
O        O      0.247060000000     0.664415000000     0.392565000000     0          
O        O      0.051520000000     0.975095000000     0.337930000000     0          
O        O      0.128122500000     0.518355000000     0.355240000000     0          
O        O      0.023185000000     0.628035000000     0.332430000000     0          
T        Si     0.210942500000     0.912210000000     0.370185000000     0          
T        Si     0.053165000000     0.902555000000     0.055515000000     0          
T        Si     0.174545000000     0.776225000000     0.405325000000     0          
T        Si     0.145137500000     0.935870000000     0.460360000000     0          
T        Si     0.213592500000     0.863175000000     0.459615000000     0          
T        Si     0.146432500000     0.835770000000     0.308855000000     0          
T        Si     0.054740000000     0.927670000000     0.368350000000     0          
T        Si     0.176285000000     0.502095000000     0.402945000000     0          
O        O      0.041767500000     0.951400000000     0.074410000000     0          
O        O      0.090770000000     0.913160000000     0.037455000000     0          
O        O      0.005950000000     0.879000000000     0.012675000000     0          
O        O      0.089052500000     0.936390000000     0.426850000000     0          
O        O      0.075572500000     0.865330000000     0.100890000000     0          
O        O      0.166075000000     0.889000000000     0.323545000000     0          
O        O      0.200785000000     0.964000000000     0.384310000000     0          
O        O      0.204397500000     0.806945000000     0.455090000000     0          
O        O      0.166187500000     0.980250000000     0.445060000000     0          
O        O      0.158465000000     0.935845000000     0.018055000000     0          
O        O      0.165730000000     0.888570000000     0.449130000000     0          
O        O      0.171797500000     0.803395000000     0.358050000000     0          
O        O      0.002940000000     0.914415000000     0.357435000000     0          
O        O      0.198480000000     0.725095000000     0.412070000000     0          
O        O      0.121877500000     0.768355000000     0.394760000000     0          
O        O      0.226815000000     0.878035000000     0.417570000000     0          
T        Si     0.210942500000     0.837790000000     0.620185000000     0          
T        Si     0.053165000000     0.847445000000     0.805515000000     0          
T        Si     0.174545000000     0.973775000000     0.655325000000     0          
T        Si     0.145137500000     0.814130000000     0.710360000000     0          
T        Si     0.213592500000     0.886825000000     0.709615000000     0          
T        Si     0.146432500000     0.914230000000     0.558855000000     0          
T        Si     0.054740000000     0.822330000000     0.618350000000     0          
T        Si     0.176285000000     0.747905000000     0.652945000000     0          
O        O      0.041767500000     0.798600000000     0.824410000000     0          
O        O      0.090770000000     0.836840000000     0.787455000000     0          
O        O      0.005950000000     0.871000000000     0.762675000000     0          
O        O      0.089052500000     0.813610000000     0.676850000000     0          
O        O      0.075572500000     0.884670000000     0.850890000000     0          
O        O      0.166075000000     0.861000000000     0.573545000000     0          
O        O      0.200785000000     0.786000000000     0.634310000000     0          
O        O      0.204397500000     0.943055000000     0.705090000000     0          
O        O      0.166187500000     0.769750000000     0.695060000000     0          
O        O      0.158465000000     0.814155000000     0.768055000000     0          
O        O      0.165730000000     0.861430000000     0.699130000000     0          
O        O      0.171797500000     0.946605000000     0.608050000000     0          
O        O      0.002940000000     0.835585000000     0.607435000000     0          
O        O      0.198480000000     0.524905000000     0.662070000000     0          
O        O      0.121877500000     0.981645000000     0.644760000000     0          
O        O      0.226815000000     0.871965000000     0.667570000000     0          
T        Si     0.039057500000     0.587790000000     0.629815000000     0          
T        Si     0.196835000000     0.597445000000     0.944485000000     0          
T        Si     0.075455000000     0.723775000000     0.594675000000     0          
T        Si     0.104862500000     0.564130000000     0.539640000000     0          
T        Si     0.036407500000     0.636825000000     0.540385000000     0          
T        Si     0.103567500000     0.664230000000     0.691145000000     0          
T        Si     0.195260000000     0.572330000000     0.631650000000     0          
T        Si     0.073715000000     0.997905000000     0.597055000000     0          
O        O      0.208232500000     0.548600000000     0.925590000000     0          
O        O      0.159230000000     0.586840000000     0.962545000000     0          
O        O      0.244050000000     0.621000000000     0.987325000000     0          
O        O      0.160947500000     0.563610000000     0.573150000000     0          
O        O      0.174427500000     0.634670000000     0.899110000000     0          
O        O      0.083925000000     0.611000000000     0.676455000000     0          
O        O      0.049215000000     0.536000000000     0.615690000000     0          
O        O      0.045602500000     0.693055000000     0.544910000000     0          
O        O      0.083812500000     0.519750000000     0.554940000000     0          
O        O      0.091535000000     0.564155000000     0.981945000000     0          
O        O      0.084270000000     0.611430000000     0.550870000000     0          
O        O      0.078202500000     0.696605000000     0.641950000000     0          
O        O      0.247060000000     0.585585000000     0.642565000000     0          
O        O      0.051520000000     0.774905000000     0.587930000000     0          
O        O      0.128122500000     0.731645000000     0.605240000000     0          
O        O      0.023185000000     0.621965000000     0.582430000000     0          
T        Si     0.039057500000     0.662210000000     0.879815000000     0          
T        Si     0.196835000000     0.652555000000     0.694485000000     0          
T        Si     0.075455000000     0.526225000000     0.844675000000     0          
T        Si     0.104862500000     0.685870000000     0.789640000000     0          
T        Si     0.036407500000     0.613175000000     0.790385000000     0          
T        Si     0.103567500000     0.585770000000     0.941145000000     0          
T        Si     0.195260000000     0.677670000000     0.881650000000     0          
T        Si     0.073715000000     0.752095000000     0.847055000000     0          
O        O      0.208232500000     0.701400000000     0.675590000000     0          
O        O      0.159230000000     0.663160000000     0.712545000000     0          
O        O      0.244050000000     0.629000000000     0.737325000000     0          
O        O      0.160947500000     0.686390000000     0.823150000000     0          
O        O      0.174427500000     0.615330000000     0.649110000000     0          
O        O      0.083925000000     0.639000000000     0.926455000000     0          
O        O      0.049215000000     0.714000000000     0.865690000000     0          
O        O      0.045602500000     0.556945000000     0.794910000000     0          
O        O      0.083812500000     0.730250000000     0.804940000000     0          
O        O      0.091535000000     0.685845000000     0.731945000000     0          
O        O      0.084270000000     0.638570000000     0.800870000000     0          
O        O      0.078202500000     0.553395000000     0.891950000000     0          
O        O      0.247060000000     0.664415000000     0.892565000000     0          
O        O      0.051520000000     0.975095000000     0.837930000000     0          
O        O      0.128122500000     0.518355000000     0.855240000000     0          
O        O      0.023185000000     0.628035000000     0.832430000000     0          
T        Si     0.210942500000     0.912210000000     0.870185000000     0          
T        Si     0.053165000000     0.902555000000     0.555515000000     0          
T        Si     0.174545000000     0.776225000000     0.905325000000     0          
T        Si     0.145137500000     0.935870000000     0.960360000000     0          
T        Si     0.213592500000     0.863175000000     0.959615000000     0          
T        Si     0.146432500000     0.835770000000     0.808855000000     0          
T        Si     0.054740000000     0.927670000000     0.868350000000     0          
T        Si     0.176285000000     0.502095000000     0.902945000000     0          
O        O      0.041767500000     0.951400000000     0.574410000000     0          
O        O      0.090770000000     0.913160000000     0.537455000000     0          
O        O      0.005950000000     0.879000000000     0.512675000000     0          
O        O      0.089052500000     0.936390000000     0.926850000000     0          
O        O      0.075572500000     0.865330000000     0.600890000000     0          
O        O      0.166075000000     0.889000000000     0.823545000000     0          
O        O      0.200785000000     0.964000000000     0.884310000000     0          
O        O      0.204397500000     0.806945000000     0.955090000000     0          
O        O      0.166187500000     0.980250000000     0.945060000000     0          
O        O      0.158465000000     0.935845000000     0.518055000000     0          
O        O      0.165730000000     0.888570000000     0.949130000000     0          
O        O      0.171797500000     0.803395000000     0.858050000000     0          
O        O      0.002940000000     0.914415000000     0.857435000000     0          
O        O      0.198480000000     0.725095000000     0.912070000000     0          
O        O      0.121877500000     0.768355000000     0.894760000000     0          
O        O      0.226815000000     0.878035000000     0.917570000000     0          
T        Si     0.460942500000     0.337790000000     0.120185000000     0          
T        Si     0.303165000000     0.347445000000     0.305515000000     0          
T        Si     0.424545000000     0.473775000000     0.155325000000     0          
T        Si     0.395137500000     0.314130000000     0.210360000000     0          
T        Si     0.463592500000     0.386825000000     0.209615000000     0          
T        Si     0.396432500000     0.414230000000     0.058855000000     0          
T        Si     0.304740000000     0.322330000000     0.118350000000     0          
T        Si     0.426285000000     0.247905000000     0.152945000000     0          
O        O      0.291767500000     0.298600000000     0.324410000000     0          
O        O      0.340770000000     0.336840000000     0.287455000000     0          
O        O      0.255950000000     0.371000000000     0.262675000000     0          
O        O      0.339052500000     0.313610000000     0.176850000000     0          
O        O      0.325572500000     0.384670000000     0.350890000000     0          
O        O      0.416075000000     0.361000000000     0.073545000000     0          
O        O      0.450785000000     0.286000000000     0.134310000000     0          
O        O      0.454397500000     0.443055000000     0.205090000000     0          
O        O      0.416187500000     0.269750000000     0.195060000000     0          
O        O      0.408465000000     0.314155000000     0.268055000000     0          
O        O      0.415730000000     0.361430000000     0.199130000000     0          
O        O      0.421797500000     0.446605000000     0.108050000000     0          
O        O      0.252940000000     0.335585000000     0.107435000000     0          
O        O      0.448480000000     0.024905000000     0.162070000000     0          
O        O      0.371877500000     0.481645000000     0.144760000000     0          
O        O      0.476815000000     0.371965000000     0.167570000000     0          
T        Si     0.289057500000     0.087790000000     0.129815000000     0          
T        Si     0.446835000000     0.097445000000     0.444485000000     0          
T        Si     0.325455000000     0.223775000000     0.094675000000     0          
T        Si     0.354862500000     0.064130000000     0.039640000000     0          
T        Si     0.286407500000     0.136825000000     0.040385000000     0          
T        Si     0.353567500000     0.164230000000     0.191145000000     0          
T        Si     0.445260000000     0.072330000000     0.131650000000     0          
T        Si     0.323715000000     0.497905000000     0.097055000000     0          
O        O      0.458232500000     0.048600000000     0.425590000000     0          
O        O      0.409230000000     0.086840000000     0.462545000000     0          
O        O      0.494050000000     0.121000000000     0.487325000000     0          
O        O      0.410947500000     0.063610000000     0.073150000000     0          
O        O      0.424427500000     0.134670000000     0.399110000000     0          
O        O      0.333925000000     0.111000000000     0.176455000000     0          
O        O      0.299215000000     0.036000000000     0.115690000000     0          
O        O      0.295602500000     0.193055000000     0.044910000000     0          
O        O      0.333812500000     0.019750000000     0.054940000000     0          
O        O      0.341535000000     0.064155000000     0.481945000000     0          
O        O      0.334270000000     0.111430000000     0.050870000000     0          
O        O      0.328202500000     0.196605000000     0.141950000000     0          
O        O      0.497060000000     0.085585000000     0.142565000000     0          
O        O      0.301520000000     0.274905000000     0.087930000000     0          
O        O      0.378122500000     0.231645000000     0.105240000000     0          
O        O      0.273185000000     0.121965000000     0.082430000000     0          
T        Si     0.289057500000     0.162210000000     0.379815000000     0          
T        Si     0.446835000000     0.152555000000     0.194485000000     0          
T        Si     0.325455000000     0.026225000000     0.344675000000     0          
T        Si     0.354862500000     0.185870000000     0.289640000000     0          
T        Si     0.286407500000     0.113175000000     0.290385000000     0          
T        Si     0.353567500000     0.085770000000     0.441145000000     0          
T        Si     0.445260000000     0.177670000000     0.381650000000     0          
T        Si     0.323715000000     0.252095000000     0.347055000000     0          
O        O      0.458232500000     0.201400000000     0.175590000000     0          
O        O      0.409230000000     0.163160000000     0.212545000000     0          
O        O      0.494050000000     0.129000000000     0.237325000000     0          
O        O      0.410947500000     0.186390000000     0.323150000000     0          
O        O      0.424427500000     0.115330000000     0.149110000000     0          
O        O      0.333925000000     0.139000000000     0.426455000000     0          
O        O      0.299215000000     0.214000000000     0.365690000000     0          
O        O      0.295602500000     0.056945000000     0.294910000000     0          
O        O      0.333812500000     0.230250000000     0.304940000000     0          
O        O      0.341535000000     0.185845000000     0.231945000000     0          
O        O      0.334270000000     0.138570000000     0.300870000000     0          
O        O      0.328202500000     0.053395000000     0.391950000000     0          
O        O      0.497060000000     0.164415000000     0.392565000000     0          
O        O      0.301520000000     0.475095000000     0.337930000000     0          
O        O      0.378122500000     0.018355000000     0.355240000000     0          
O        O      0.273185000000     0.128035000000     0.332430000000     0          
T        Si     0.460942500000     0.412210000000     0.370185000000     0          
T        Si     0.303165000000     0.402555000000     0.055515000000     0          
T        Si     0.424545000000     0.276225000000     0.405325000000     0          
T        Si     0.395137500000     0.435870000000     0.460360000000     0          
T        Si     0.463592500000     0.363175000000     0.459615000000     0          
T        Si     0.396432500000     0.335770000000     0.308855000000     0          
T        Si     0.304740000000     0.427670000000     0.368350000000     0          
T        Si     0.426285000000     0.002095000000     0.402945000000     0          
O        O      0.291767500000     0.451400000000     0.074410000000     0          
O        O      0.340770000000     0.413160000000     0.037455000000     0          
O        O      0.255950000000     0.379000000000     0.012675000000     0          
O        O      0.339052500000     0.436390000000     0.426850000000     0          
O        O      0.325572500000     0.365330000000     0.100890000000     0          
O        O      0.416075000000     0.389000000000     0.323545000000     0          
O        O      0.450785000000     0.464000000000     0.384310000000     0          
O        O      0.454397500000     0.306945000000     0.455090000000     0          
O        O      0.416187500000     0.480250000000     0.445060000000     0          
O        O      0.408465000000     0.435845000000     0.018055000000     0          
O        O      0.415730000000     0.388570000000     0.449130000000     0          
O        O      0.421797500000     0.303395000000     0.358050000000     0          
O        O      0.252940000000     0.414415000000     0.357435000000     0          
O        O      0.448480000000     0.225095000000     0.412070000000     0          
O        O      0.371877500000     0.268355000000     0.394760000000     0          
O        O      0.476815000000     0.378035000000     0.417570000000     0          
T        Si     0.460942500000     0.337790000000     0.620185000000     0          
T        Si     0.303165000000     0.347445000000     0.805515000000     0          
T        Si     0.424545000000     0.473775000000     0.655325000000     0          
T        Si     0.395137500000     0.314130000000     0.710360000000     0          
T        Si     0.463592500000     0.386825000000     0.709615000000     0          
T        Si     0.396432500000     0.414230000000     0.558855000000     0          
T        Si     0.304740000000     0.322330000000     0.618350000000     0          
T        Si     0.426285000000     0.247905000000     0.652945000000     0          
O        O      0.291767500000     0.298600000000     0.824410000000     0          
O        O      0.340770000000     0.336840000000     0.787455000000     0          
O        O      0.255950000000     0.371000000000     0.762675000000     0          
O        O      0.339052500000     0.313610000000     0.676850000000     0          
O        O      0.325572500000     0.384670000000     0.850890000000     0          
O        O      0.416075000000     0.361000000000     0.573545000000     0          
O        O      0.450785000000     0.286000000000     0.634310000000     0          
O        O      0.454397500000     0.443055000000     0.705090000000     0          
O        O      0.416187500000     0.269750000000     0.695060000000     0          
O        O      0.408465000000     0.314155000000     0.768055000000     0          
O        O      0.415730000000     0.361430000000     0.699130000000     0          
O        O      0.421797500000     0.446605000000     0.608050000000     0          
O        O      0.252940000000     0.335585000000     0.607435000000     0          
O        O      0.448480000000     0.024905000000     0.662070000000     0          
O        O      0.371877500000     0.481645000000     0.644760000000     0          
O        O      0.476815000000     0.371965000000     0.667570000000     0          
T        Si     0.289057500000     0.087790000000     0.629815000000     0          
T        Si     0.446835000000     0.097445000000     0.944485000000     0          
T        Si     0.325455000000     0.223775000000     0.594675000000     0          
T        Si     0.354862500000     0.064130000000     0.539640000000     0          
T        Si     0.286407500000     0.136825000000     0.540385000000     0          
T        Si     0.353567500000     0.164230000000     0.691145000000     0          
T        Si     0.445260000000     0.072330000000     0.631650000000     0          
T        Si     0.323715000000     0.497905000000     0.597055000000     0          
O        O      0.458232500000     0.048600000000     0.925590000000     0          
O        O      0.409230000000     0.086840000000     0.962545000000     0          
O        O      0.494050000000     0.121000000000     0.987325000000     0          
O        O      0.410947500000     0.063610000000     0.573150000000     0          
O        O      0.424427500000     0.134670000000     0.899110000000     0          
O        O      0.333925000000     0.111000000000     0.676455000000     0          
O        O      0.299215000000     0.036000000000     0.615690000000     0          
O        O      0.295602500000     0.193055000000     0.544910000000     0          
O        O      0.333812500000     0.019750000000     0.554940000000     0          
O        O      0.341535000000     0.064155000000     0.981945000000     0          
O        O      0.334270000000     0.111430000000     0.550870000000     0          
O        O      0.328202500000     0.196605000000     0.641950000000     0          
O        O      0.497060000000     0.085585000000     0.642565000000     0          
O        O      0.301520000000     0.274905000000     0.587930000000     0          
O        O      0.378122500000     0.231645000000     0.605240000000     0          
O        O      0.273185000000     0.121965000000     0.582430000000     0          
T        Si     0.289057500000     0.162210000000     0.879815000000     0          
T        Si     0.446835000000     0.152555000000     0.694485000000     0          
T        Si     0.325455000000     0.026225000000     0.844675000000     0          
T        Si     0.354862500000     0.185870000000     0.789640000000     0          
T        Si     0.286407500000     0.113175000000     0.790385000000     0          
T        Si     0.353567500000     0.085770000000     0.941145000000     0          
T        Si     0.445260000000     0.177670000000     0.881650000000     0          
T        Si     0.323715000000     0.252095000000     0.847055000000     0          
O        O      0.458232500000     0.201400000000     0.675590000000     0          
O        O      0.409230000000     0.163160000000     0.712545000000     0          
O        O      0.494050000000     0.129000000000     0.737325000000     0          
O        O      0.410947500000     0.186390000000     0.823150000000     0          
O        O      0.424427500000     0.115330000000     0.649110000000     0          
O        O      0.333925000000     0.139000000000     0.926455000000     0          
O        O      0.299215000000     0.214000000000     0.865690000000     0          
O        O      0.295602500000     0.056945000000     0.794910000000     0          
O        O      0.333812500000     0.230250000000     0.804940000000     0          
O        O      0.341535000000     0.185845000000     0.731945000000     0          
O        O      0.334270000000     0.138570000000     0.800870000000     0          
O        O      0.328202500000     0.053395000000     0.891950000000     0          
O        O      0.497060000000     0.164415000000     0.892565000000     0          
O        O      0.301520000000     0.475095000000     0.837930000000     0          
O        O      0.378122500000     0.018355000000     0.855240000000     0          
O        O      0.273185000000     0.128035000000     0.832430000000     0          
T        Si     0.460942500000     0.412210000000     0.870185000000     0          
T        Si     0.303165000000     0.402555000000     0.555515000000     0          
T        Si     0.424545000000     0.276225000000     0.905325000000     0          
T        Si     0.395137500000     0.435870000000     0.960360000000     0          
T        Si     0.463592500000     0.363175000000     0.959615000000     0          
T        Si     0.396432500000     0.335770000000     0.808855000000     0          
T        Si     0.304740000000     0.427670000000     0.868350000000     0          
T        Si     0.426285000000     0.002095000000     0.902945000000     0          
O        O      0.291767500000     0.451400000000     0.574410000000     0          
O        O      0.340770000000     0.413160000000     0.537455000000     0          
O        O      0.255950000000     0.379000000000     0.512675000000     0          
O        O      0.339052500000     0.436390000000     0.926850000000     0          
O        O      0.325572500000     0.365330000000     0.600890000000     0          
O        O      0.416075000000     0.389000000000     0.823545000000     0          
O        O      0.450785000000     0.464000000000     0.884310000000     0          
O        O      0.454397500000     0.306945000000     0.955090000000     0          
O        O      0.416187500000     0.480250000000     0.945060000000     0          
O        O      0.408465000000     0.435845000000     0.518055000000     0          
O        O      0.415730000000     0.388570000000     0.949130000000     0          
O        O      0.421797500000     0.303395000000     0.858050000000     0          
O        O      0.252940000000     0.414415000000     0.857435000000     0          
O        O      0.448480000000     0.225095000000     0.912070000000     0          
O        O      0.371877500000     0.268355000000     0.894760000000     0          
O        O      0.476815000000     0.378035000000     0.917570000000     0          
T        Si     0.460942500000     0.837790000000     0.120185000000     0          
T        Si     0.303165000000     0.847445000000     0.305515000000     0          
T        Si     0.424545000000     0.973775000000     0.155325000000     0          
T        Si     0.395137500000     0.814130000000     0.210360000000     0          
T        Si     0.463592500000     0.886825000000     0.209615000000     0          
T        Si     0.396432500000     0.914230000000     0.058855000000     0          
T        Si     0.304740000000     0.822330000000     0.118350000000     0          
T        Si     0.426285000000     0.747905000000     0.152945000000     0          
O        O      0.291767500000     0.798600000000     0.324410000000     0          
O        O      0.340770000000     0.836840000000     0.287455000000     0          
O        O      0.255950000000     0.871000000000     0.262675000000     0          
O        O      0.339052500000     0.813610000000     0.176850000000     0          
O        O      0.325572500000     0.884670000000     0.350890000000     0          
O        O      0.416075000000     0.861000000000     0.073545000000     0          
O        O      0.450785000000     0.786000000000     0.134310000000     0          
O        O      0.454397500000     0.943055000000     0.205090000000     0          
O        O      0.416187500000     0.769750000000     0.195060000000     0          
O        O      0.408465000000     0.814155000000     0.268055000000     0          
O        O      0.415730000000     0.861430000000     0.199130000000     0          
O        O      0.421797500000     0.946605000000     0.108050000000     0          
O        O      0.252940000000     0.835585000000     0.107435000000     0          
O        O      0.448480000000     0.524905000000     0.162070000000     0          
O        O      0.371877500000     0.981645000000     0.144760000000     0          
O        O      0.476815000000     0.871965000000     0.167570000000     0          
T        Si     0.289057500000     0.587790000000     0.129815000000     0          
T        Si     0.446835000000     0.597445000000     0.444485000000     0          
T        Si     0.325455000000     0.723775000000     0.094675000000     0          
T        Si     0.354862500000     0.564130000000     0.039640000000     0          
T        Si     0.286407500000     0.636825000000     0.040385000000     0          
T        Si     0.353567500000     0.664230000000     0.191145000000     0          
T        Si     0.445260000000     0.572330000000     0.131650000000     0          
T        Si     0.323715000000     0.997905000000     0.097055000000     0          
O        O      0.458232500000     0.548600000000     0.425590000000     0          
O        O      0.409230000000     0.586840000000     0.462545000000     0          
O        O      0.494050000000     0.621000000000     0.487325000000     0          
O        O      0.410947500000     0.563610000000     0.073150000000     0          
O        O      0.424427500000     0.634670000000     0.399110000000     0          
O        O      0.333925000000     0.611000000000     0.176455000000     0          
O        O      0.299215000000     0.536000000000     0.115690000000     0          
O        O      0.295602500000     0.693055000000     0.044910000000     0          
O        O      0.333812500000     0.519750000000     0.054940000000     0          
O        O      0.341535000000     0.564155000000     0.481945000000     0          
O        O      0.334270000000     0.611430000000     0.050870000000     0          
O        O      0.328202500000     0.696605000000     0.141950000000     0          
O        O      0.497060000000     0.585585000000     0.142565000000     0          
O        O      0.301520000000     0.774905000000     0.087930000000     0          
O        O      0.378122500000     0.731645000000     0.105240000000     0          
O        O      0.273185000000     0.621965000000     0.082430000000     0          
T        Si     0.289057500000     0.662210000000     0.379815000000     0          
T        Si     0.446835000000     0.652555000000     0.194485000000     0          
T        Si     0.325455000000     0.526225000000     0.344675000000     0          
T        Si     0.354862500000     0.685870000000     0.289640000000     0          
T        Si     0.286407500000     0.613175000000     0.290385000000     0          
T        Si     0.353567500000     0.585770000000     0.441145000000     0          
T        Si     0.445260000000     0.677670000000     0.381650000000     0          
T        Si     0.323715000000     0.752095000000     0.347055000000     0          
O        O      0.458232500000     0.701400000000     0.175590000000     0          
O        O      0.409230000000     0.663160000000     0.212545000000     0          
O        O      0.494050000000     0.629000000000     0.237325000000     0          
O        O      0.410947500000     0.686390000000     0.323150000000     0          
O        O      0.424427500000     0.615330000000     0.149110000000     0          
O        O      0.333925000000     0.639000000000     0.426455000000     0          
O        O      0.299215000000     0.714000000000     0.365690000000     0          
O        O      0.295602500000     0.556945000000     0.294910000000     0          
O        O      0.333812500000     0.730250000000     0.304940000000     0          
O        O      0.341535000000     0.685845000000     0.231945000000     0          
O        O      0.334270000000     0.638570000000     0.300870000000     0          
O        O      0.328202500000     0.553395000000     0.391950000000     0          
O        O      0.497060000000     0.664415000000     0.392565000000     0          
O        O      0.301520000000     0.975095000000     0.337930000000     0          
O        O      0.378122500000     0.518355000000     0.355240000000     0          
O        O      0.273185000000     0.628035000000     0.332430000000     0          
T        Si     0.460942500000     0.912210000000     0.370185000000     0          
T        Si     0.303165000000     0.902555000000     0.055515000000     0          
T        Si     0.424545000000     0.776225000000     0.405325000000     0          
T        Si     0.395137500000     0.935870000000     0.460360000000     0          
T        Si     0.463592500000     0.863175000000     0.459615000000     0          
T        Si     0.396432500000     0.835770000000     0.308855000000     0          
T        Si     0.304740000000     0.927670000000     0.368350000000     0          
T        Si     0.426285000000     0.502095000000     0.402945000000     0          
O        O      0.291767500000     0.951400000000     0.074410000000     0          
O        O      0.340770000000     0.913160000000     0.037455000000     0          
O        O      0.255950000000     0.879000000000     0.012675000000     0          
O        O      0.339052500000     0.936390000000     0.426850000000     0          
O        O      0.325572500000     0.865330000000     0.100890000000     0          
O        O      0.416075000000     0.889000000000     0.323545000000     0          
O        O      0.450785000000     0.964000000000     0.384310000000     0          
O        O      0.454397500000     0.806945000000     0.455090000000     0          
O        O      0.416187500000     0.980250000000     0.445060000000     0          
O        O      0.408465000000     0.935845000000     0.018055000000     0          
O        O      0.415730000000     0.888570000000     0.449130000000     0          
O        O      0.421797500000     0.803395000000     0.358050000000     0          
O        O      0.252940000000     0.914415000000     0.357435000000     0          
O        O      0.448480000000     0.725095000000     0.412070000000     0          
O        O      0.371877500000     0.768355000000     0.394760000000     0          
O        O      0.476815000000     0.878035000000     0.417570000000     0          
T        Si     0.460942500000     0.837790000000     0.620185000000     0          
T        Si     0.303165000000     0.847445000000     0.805515000000     0          
T        Si     0.424545000000     0.973775000000     0.655325000000     0          
T        Si     0.395137500000     0.814130000000     0.710360000000     0          
T        Si     0.463592500000     0.886825000000     0.709615000000     0          
T        Si     0.396432500000     0.914230000000     0.558855000000     0          
T        Si     0.304740000000     0.822330000000     0.618350000000     0          
T        Si     0.426285000000     0.747905000000     0.652945000000     0          
O        O      0.291767500000     0.798600000000     0.824410000000     0          
O        O      0.340770000000     0.836840000000     0.787455000000     0          
O        O      0.255950000000     0.871000000000     0.762675000000     0          
O        O      0.339052500000     0.813610000000     0.676850000000     0          
O        O      0.325572500000     0.884670000000     0.850890000000     0          
O        O      0.416075000000     0.861000000000     0.573545000000     0          
O        O      0.450785000000     0.786000000000     0.634310000000     0          
O        O      0.454397500000     0.943055000000     0.705090000000     0          
O        O      0.416187500000     0.769750000000     0.695060000000     0          
O        O      0.408465000000     0.814155000000     0.768055000000     0          
O        O      0.415730000000     0.861430000000     0.699130000000     0          
O        O      0.421797500000     0.946605000000     0.608050000000     0          
O        O      0.252940000000     0.835585000000     0.607435000000     0          
O        O      0.448480000000     0.524905000000     0.662070000000     0          
O        O      0.371877500000     0.981645000000     0.644760000000     0          
O        O      0.476815000000     0.871965000000     0.667570000000     0          
T        Si     0.289057500000     0.587790000000     0.629815000000     0          
T        Si     0.446835000000     0.597445000000     0.944485000000     0          
T        Si     0.325455000000     0.723775000000     0.594675000000     0          
T        Si     0.354862500000     0.564130000000     0.539640000000     0          
T        Si     0.286407500000     0.636825000000     0.540385000000     0          
T        Si     0.353567500000     0.664230000000     0.691145000000     0          
T        Si     0.445260000000     0.572330000000     0.631650000000     0          
T        Si     0.323715000000     0.997905000000     0.597055000000     0          
O        O      0.458232500000     0.548600000000     0.925590000000     0          
O        O      0.409230000000     0.586840000000     0.962545000000     0          
O        O      0.494050000000     0.621000000000     0.987325000000     0          
O        O      0.410947500000     0.563610000000     0.573150000000     0          
O        O      0.424427500000     0.634670000000     0.899110000000     0          
O        O      0.333925000000     0.611000000000     0.676455000000     0          
O        O      0.299215000000     0.536000000000     0.615690000000     0          
O        O      0.295602500000     0.693055000000     0.544910000000     0          
O        O      0.333812500000     0.519750000000     0.554940000000     0          
O        O      0.341535000000     0.564155000000     0.981945000000     0          
O        O      0.334270000000     0.611430000000     0.550870000000     0          
O        O      0.328202500000     0.696605000000     0.641950000000     0          
O        O      0.497060000000     0.585585000000     0.642565000000     0          
O        O      0.301520000000     0.774905000000     0.587930000000     0          
O        O      0.378122500000     0.731645000000     0.605240000000     0          
O        O      0.273185000000     0.621965000000     0.582430000000     0          
T        Si     0.289057500000     0.662210000000     0.879815000000     0          
T        Si     0.446835000000     0.652555000000     0.694485000000     0          
T        Si     0.325455000000     0.526225000000     0.844675000000     0          
T        Si     0.354862500000     0.685870000000     0.789640000000     0          
T        Si     0.286407500000     0.613175000000     0.790385000000     0          
T        Si     0.353567500000     0.585770000000     0.941145000000     0          
T        Si     0.445260000000     0.677670000000     0.881650000000     0          
T        Si     0.323715000000     0.752095000000     0.847055000000     0          
O        O      0.458232500000     0.701400000000     0.675590000000     0          
O        O      0.409230000000     0.663160000000     0.712545000000     0          
O        O      0.494050000000     0.629000000000     0.737325000000     0          
O        O      0.410947500000     0.686390000000     0.823150000000     0          
O        O      0.424427500000     0.615330000000     0.649110000000     0          
O        O      0.333925000000     0.639000000000     0.926455000000     0          
O        O      0.299215000000     0.714000000000     0.865690000000     0          
O        O      0.295602500000     0.556945000000     0.794910000000     0          
O        O      0.333812500000     0.730250000000     0.804940000000     0          
O        O      0.341535000000     0.685845000000     0.731945000000     0          
O        O      0.334270000000     0.638570000000     0.800870000000     0          
O        O      0.328202500000     0.553395000000     0.891950000000     0          
O        O      0.497060000000     0.664415000000     0.892565000000     0          
O        O      0.301520000000     0.975095000000     0.837930000000     0          
O        O      0.378122500000     0.518355000000     0.855240000000     0          
O        O      0.273185000000     0.628035000000     0.832430000000     0          
T        Si     0.460942500000     0.912210000000     0.870185000000     0          
T        Si     0.303165000000     0.902555000000     0.555515000000     0          
T        Si     0.424545000000     0.776225000000     0.905325000000     0          
T        Si     0.395137500000     0.935870000000     0.960360000000     0          
T        Si     0.463592500000     0.863175000000     0.959615000000     0          
T        Si     0.396432500000     0.835770000000     0.808855000000     0          
T        Si     0.304740000000     0.927670000000     0.868350000000     0          
T        Si     0.426285000000     0.502095000000     0.902945000000     0          
O        O      0.291767500000     0.951400000000     0.574410000000     0          
O        O      0.340770000000     0.913160000000     0.537455000000     0          
O        O      0.255950000000     0.879000000000     0.512675000000     0          
O        O      0.339052500000     0.936390000000     0.926850000000     0          
O        O      0.325572500000     0.865330000000     0.600890000000     0          
O        O      0.416075000000     0.889000000000     0.823545000000     0          
O        O      0.450785000000     0.964000000000     0.884310000000     0          
O        O      0.454397500000     0.806945000000     0.955090000000     0          
O        O      0.416187500000     0.980250000000     0.945060000000     0          
O        O      0.408465000000     0.935845000000     0.518055000000     0          
O        O      0.415730000000     0.888570000000     0.949130000000     0          
O        O      0.421797500000     0.803395000000     0.858050000000     0          
O        O      0.252940000000     0.914415000000     0.857435000000     0          
O        O      0.448480000000     0.725095000000     0.912070000000     0          
O        O      0.371877500000     0.768355000000     0.894760000000     0          
O        O      0.476815000000     0.878035000000     0.917570000000     0          
T        Si     0.710942500000     0.337790000000     0.120185000000     0          
T        Si     0.553165000000     0.347445000000     0.305515000000     0          
T        Si     0.674545000000     0.473775000000     0.155325000000     0          
T        Si     0.645137500000     0.314130000000     0.210360000000     0          
T        Si     0.713592500000     0.386825000000     0.209615000000     0          
T        Si     0.646432500000     0.414230000000     0.058855000000     0          
T        Si     0.554740000000     0.322330000000     0.118350000000     0          
T        Si     0.676285000000     0.247905000000     0.152945000000     0          
O        O      0.541767500000     0.298600000000     0.324410000000     0          
O        O      0.590770000000     0.336840000000     0.287455000000     0          
O        O      0.505950000000     0.371000000000     0.262675000000     0          
O        O      0.589052500000     0.313610000000     0.176850000000     0          
O        O      0.575572500000     0.384670000000     0.350890000000     0          
O        O      0.666075000000     0.361000000000     0.073545000000     0          
O        O      0.700785000000     0.286000000000     0.134310000000     0          
O        O      0.704397500000     0.443055000000     0.205090000000     0          
O        O      0.666187500000     0.269750000000     0.195060000000     0          
O        O      0.658465000000     0.314155000000     0.268055000000     0          
O        O      0.665730000000     0.361430000000     0.199130000000     0          
O        O      0.671797500000     0.446605000000     0.108050000000     0          
O        O      0.502940000000     0.335585000000     0.107435000000     0          
O        O      0.698480000000     0.024905000000     0.162070000000     0          
O        O      0.621877500000     0.481645000000     0.144760000000     0          
O        O      0.726815000000     0.371965000000     0.167570000000     0          
T        Si     0.539057500000     0.087790000000     0.129815000000     0          
T        Si     0.696835000000     0.097445000000     0.444485000000     0          
T        Si     0.575455000000     0.223775000000     0.094675000000     0          
T        Si     0.604862500000     0.064130000000     0.039640000000     0          
T        Si     0.536407500000     0.136825000000     0.040385000000     0          
T        Si     0.603567500000     0.164230000000     0.191145000000     0          
T        Si     0.695260000000     0.072330000000     0.131650000000     0          
T        Si     0.573715000000     0.497905000000     0.097055000000     0          
O        O      0.708232500000     0.048600000000     0.425590000000     0          
O        O      0.659230000000     0.086840000000     0.462545000000     0          
O        O      0.744050000000     0.121000000000     0.487325000000     0          
O        O      0.660947500000     0.063610000000     0.073150000000     0          
O        O      0.674427500000     0.134670000000     0.399110000000     0          
O        O      0.583925000000     0.111000000000     0.176455000000     0          
O        O      0.549215000000     0.036000000000     0.115690000000     0          
O        O      0.545602500000     0.193055000000     0.044910000000     0          
O        O      0.583812500000     0.019750000000     0.054940000000     0          
O        O      0.591535000000     0.064155000000     0.481945000000     0          
O        O      0.584270000000     0.111430000000     0.050870000000     0          
O        O      0.578202500000     0.196605000000     0.141950000000     0          
O        O      0.747060000000     0.085585000000     0.142565000000     0          
O        O      0.551520000000     0.274905000000     0.087930000000     0          
O        O      0.628122500000     0.231645000000     0.105240000000     0          
O        O      0.523185000000     0.121965000000     0.082430000000     0          
T        Si     0.539057500000     0.162210000000     0.379815000000     0          
T        Si     0.696835000000     0.152555000000     0.194485000000     0          
T        Si     0.575455000000     0.026225000000     0.344675000000     0          
T        Si     0.604862500000     0.185870000000     0.289640000000     0          
T        Si     0.536407500000     0.113175000000     0.290385000000     0          
T        Si     0.603567500000     0.085770000000     0.441145000000     0          
T        Si     0.695260000000     0.177670000000     0.381650000000     0          
T        Si     0.573715000000     0.252095000000     0.347055000000     0          
O        O      0.708232500000     0.201400000000     0.175590000000     0          
O        O      0.659230000000     0.163160000000     0.212545000000     0          
O        O      0.744050000000     0.129000000000     0.237325000000     0          
O        O      0.660947500000     0.186390000000     0.323150000000     0          
O        O      0.674427500000     0.115330000000     0.149110000000     0          
O        O      0.583925000000     0.139000000000     0.426455000000     0          
O        O      0.549215000000     0.214000000000     0.365690000000     0          
O        O      0.545602500000     0.056945000000     0.294910000000     0          
O        O      0.583812500000     0.230250000000     0.304940000000     0          
O        O      0.591535000000     0.185845000000     0.231945000000     0          
O        O      0.584270000000     0.138570000000     0.300870000000     0          
O        O      0.578202500000     0.053395000000     0.391950000000     0          
O        O      0.747060000000     0.164415000000     0.392565000000     0          
O        O      0.551520000000     0.475095000000     0.337930000000     0          
O        O      0.628122500000     0.018355000000     0.355240000000     0          
O        O      0.523185000000     0.128035000000     0.332430000000     0          
T        Si     0.710942500000     0.412210000000     0.370185000000     0          
T        Si     0.553165000000     0.402555000000     0.055515000000     0          
T        Si     0.674545000000     0.276225000000     0.405325000000     0          
T        Si     0.645137500000     0.435870000000     0.460360000000     0          
T        Si     0.713592500000     0.363175000000     0.459615000000     0          
T        Si     0.646432500000     0.335770000000     0.308855000000     0          
T        Si     0.554740000000     0.427670000000     0.368350000000     0          
T        Si     0.676285000000     0.002095000000     0.402945000000     0          
O        O      0.541767500000     0.451400000000     0.074410000000     0          
O        O      0.590770000000     0.413160000000     0.037455000000     0          
O        O      0.505950000000     0.379000000000     0.012675000000     0          
O        O      0.589052500000     0.436390000000     0.426850000000     0          
O        O      0.575572500000     0.365330000000     0.100890000000     0          
O        O      0.666075000000     0.389000000000     0.323545000000     0          
O        O      0.700785000000     0.464000000000     0.384310000000     0          
O        O      0.704397500000     0.306945000000     0.455090000000     0          
O        O      0.666187500000     0.480250000000     0.445060000000     0          
O        O      0.658465000000     0.435845000000     0.018055000000     0          
O        O      0.665730000000     0.388570000000     0.449130000000     0          
O        O      0.671797500000     0.303395000000     0.358050000000     0          
O        O      0.502940000000     0.414415000000     0.357435000000     0          
O        O      0.698480000000     0.225095000000     0.412070000000     0          
O        O      0.621877500000     0.268355000000     0.394760000000     0          
O        O      0.726815000000     0.378035000000     0.417570000000     0          
T        Si     0.710942500000     0.337790000000     0.620185000000     0          
T        Si     0.553165000000     0.347445000000     0.805515000000     0          
T        Si     0.674545000000     0.473775000000     0.655325000000     0          
T        Si     0.645137500000     0.314130000000     0.710360000000     0          
T        Si     0.713592500000     0.386825000000     0.709615000000     0          
T        Si     0.646432500000     0.414230000000     0.558855000000     0          
T        Si     0.554740000000     0.322330000000     0.618350000000     0          
T        Si     0.676285000000     0.247905000000     0.652945000000     0          
O        O      0.541767500000     0.298600000000     0.824410000000     0          
O        O      0.590770000000     0.336840000000     0.787455000000     0          
O        O      0.505950000000     0.371000000000     0.762675000000     0          
O        O      0.589052500000     0.313610000000     0.676850000000     0          
O        O      0.575572500000     0.384670000000     0.850890000000     0          
O        O      0.666075000000     0.361000000000     0.573545000000     0          
O        O      0.700785000000     0.286000000000     0.634310000000     0          
O        O      0.704397500000     0.443055000000     0.705090000000     0          
O        O      0.666187500000     0.269750000000     0.695060000000     0          
O        O      0.658465000000     0.314155000000     0.768055000000     0          
O        O      0.665730000000     0.361430000000     0.699130000000     0          
O        O      0.671797500000     0.446605000000     0.608050000000     0          
O        O      0.502940000000     0.335585000000     0.607435000000     0          
O        O      0.698480000000     0.024905000000     0.662070000000     0          
O        O      0.621877500000     0.481645000000     0.644760000000     0          
O        O      0.726815000000     0.371965000000     0.667570000000     0          
T        Si     0.539057500000     0.087790000000     0.629815000000     0          
T        Si     0.696835000000     0.097445000000     0.944485000000     0          
T        Si     0.575455000000     0.223775000000     0.594675000000     0          
T        Si     0.604862500000     0.064130000000     0.539640000000     0          
T        Si     0.536407500000     0.136825000000     0.540385000000     0          
T        Si     0.603567500000     0.164230000000     0.691145000000     0          
T        Si     0.695260000000     0.072330000000     0.631650000000     0          
T        Si     0.573715000000     0.497905000000     0.597055000000     0          
O        O      0.708232500000     0.048600000000     0.925590000000     0          
O        O      0.659230000000     0.086840000000     0.962545000000     0          
O        O      0.744050000000     0.121000000000     0.987325000000     0          
O        O      0.660947500000     0.063610000000     0.573150000000     0          
O        O      0.674427500000     0.134670000000     0.899110000000     0          
O        O      0.583925000000     0.111000000000     0.676455000000     0          
O        O      0.549215000000     0.036000000000     0.615690000000     0          
O        O      0.545602500000     0.193055000000     0.544910000000     0          
O        O      0.583812500000     0.019750000000     0.554940000000     0          
O        O      0.591535000000     0.064155000000     0.981945000000     0          
O        O      0.584270000000     0.111430000000     0.550870000000     0          
O        O      0.578202500000     0.196605000000     0.641950000000     0          
O        O      0.747060000000     0.085585000000     0.642565000000     0          
O        O      0.551520000000     0.274905000000     0.587930000000     0          
O        O      0.628122500000     0.231645000000     0.605240000000     0          
O        O      0.523185000000     0.121965000000     0.582430000000     0          
T        Si     0.539057500000     0.162210000000     0.879815000000     0          
T        Si     0.696835000000     0.152555000000     0.694485000000     0          
T        Si     0.575455000000     0.026225000000     0.844675000000     0          
T        Si     0.604862500000     0.185870000000     0.789640000000     0          
T        Si     0.536407500000     0.113175000000     0.790385000000     0          
T        Si     0.603567500000     0.085770000000     0.941145000000     0          
T        Si     0.695260000000     0.177670000000     0.881650000000     0          
T        Si     0.573715000000     0.252095000000     0.847055000000     0          
O        O      0.708232500000     0.201400000000     0.675590000000     0          
O        O      0.659230000000     0.163160000000     0.712545000000     0          
O        O      0.744050000000     0.129000000000     0.737325000000     0          
O        O      0.660947500000     0.186390000000     0.823150000000     0          
O        O      0.674427500000     0.115330000000     0.649110000000     0          
O        O      0.583925000000     0.139000000000     0.926455000000     0          
O        O      0.549215000000     0.214000000000     0.865690000000     0          
O        O      0.545602500000     0.056945000000     0.794910000000     0          
O        O      0.583812500000     0.230250000000     0.804940000000     0          
O        O      0.591535000000     0.185845000000     0.731945000000     0          
O        O      0.584270000000     0.138570000000     0.800870000000     0          
O        O      0.578202500000     0.053395000000     0.891950000000     0          
O        O      0.747060000000     0.164415000000     0.892565000000     0          
O        O      0.551520000000     0.475095000000     0.837930000000     0          
O        O      0.628122500000     0.018355000000     0.855240000000     0          
O        O      0.523185000000     0.128035000000     0.832430000000     0          
T        Si     0.710942500000     0.412210000000     0.870185000000     0          
T        Si     0.553165000000     0.402555000000     0.555515000000     0          
T        Si     0.674545000000     0.276225000000     0.905325000000     0          
T        Si     0.645137500000     0.435870000000     0.960360000000     0          
T        Si     0.713592500000     0.363175000000     0.959615000000     0          
T        Si     0.646432500000     0.335770000000     0.808855000000     0          
T        Si     0.554740000000     0.427670000000     0.868350000000     0          
T        Si     0.676285000000     0.002095000000     0.902945000000     0          
O        O      0.541767500000     0.451400000000     0.574410000000     0          
O        O      0.590770000000     0.413160000000     0.537455000000     0          
O        O      0.505950000000     0.379000000000     0.512675000000     0          
O        O      0.589052500000     0.436390000000     0.926850000000     0          
O        O      0.575572500000     0.365330000000     0.600890000000     0          
O        O      0.666075000000     0.389000000000     0.823545000000     0          
O        O      0.700785000000     0.464000000000     0.884310000000     0          
O        O      0.704397500000     0.306945000000     0.955090000000     0          
O        O      0.666187500000     0.480250000000     0.945060000000     0          
O        O      0.658465000000     0.435845000000     0.518055000000     0          
O        O      0.665730000000     0.388570000000     0.949130000000     0          
O        O      0.671797500000     0.303395000000     0.858050000000     0          
O        O      0.502940000000     0.414415000000     0.857435000000     0          
O        O      0.698480000000     0.225095000000     0.912070000000     0          
O        O      0.621877500000     0.268355000000     0.894760000000     0          
O        O      0.726815000000     0.378035000000     0.917570000000     0          
T        Si     0.710942500000     0.837790000000     0.120185000000     0          
T        Si     0.553165000000     0.847445000000     0.305515000000     0          
T        Si     0.674545000000     0.973775000000     0.155325000000     0          
T        Si     0.645137500000     0.814130000000     0.210360000000     0          
T        Si     0.713592500000     0.886825000000     0.209615000000     0          
T        Si     0.646432500000     0.914230000000     0.058855000000     0          
T        Si     0.554740000000     0.822330000000     0.118350000000     0          
T        Si     0.676285000000     0.747905000000     0.152945000000     0          
O        O      0.541767500000     0.798600000000     0.324410000000     0          
O        O      0.590770000000     0.836840000000     0.287455000000     0          
O        O      0.505950000000     0.871000000000     0.262675000000     0          
O        O      0.589052500000     0.813610000000     0.176850000000     0          
O        O      0.575572500000     0.884670000000     0.350890000000     0          
O        O      0.666075000000     0.861000000000     0.073545000000     0          
O        O      0.700785000000     0.786000000000     0.134310000000     0          
O        O      0.704397500000     0.943055000000     0.205090000000     0          
O        O      0.666187500000     0.769750000000     0.195060000000     0          
O        O      0.658465000000     0.814155000000     0.268055000000     0          
O        O      0.665730000000     0.861430000000     0.199130000000     0          
O        O      0.671797500000     0.946605000000     0.108050000000     0          
O        O      0.502940000000     0.835585000000     0.107435000000     0          
O        O      0.698480000000     0.524905000000     0.162070000000     0          
O        O      0.621877500000     0.981645000000     0.144760000000     0          
O        O      0.726815000000     0.871965000000     0.167570000000     0          
T        Si     0.539057500000     0.587790000000     0.129815000000     0          
T        Si     0.696835000000     0.597445000000     0.444485000000     0          
T        Si     0.575455000000     0.723775000000     0.094675000000     0          
T        Si     0.604862500000     0.564130000000     0.039640000000     0          
T        Si     0.536407500000     0.636825000000     0.040385000000     0          
T        Si     0.603567500000     0.664230000000     0.191145000000     0          
T        Si     0.695260000000     0.572330000000     0.131650000000     0          
T        Si     0.573715000000     0.997905000000     0.097055000000     0          
O        O      0.708232500000     0.548600000000     0.425590000000     0          
O        O      0.659230000000     0.586840000000     0.462545000000     0          
O        O      0.744050000000     0.621000000000     0.487325000000     0          
O        O      0.660947500000     0.563610000000     0.073150000000     0          
O        O      0.674427500000     0.634670000000     0.399110000000     0          
O        O      0.583925000000     0.611000000000     0.176455000000     0          
O        O      0.549215000000     0.536000000000     0.115690000000     0          
O        O      0.545602500000     0.693055000000     0.044910000000     0          
O        O      0.583812500000     0.519750000000     0.054940000000     0          
O        O      0.591535000000     0.564155000000     0.481945000000     0          
O        O      0.584270000000     0.611430000000     0.050870000000     0          
O        O      0.578202500000     0.696605000000     0.141950000000     0          
O        O      0.747060000000     0.585585000000     0.142565000000     0          
O        O      0.551520000000     0.774905000000     0.087930000000     0          
O        O      0.628122500000     0.731645000000     0.105240000000     0          
O        O      0.523185000000     0.621965000000     0.082430000000     0          
T        Si     0.539057500000     0.662210000000     0.379815000000     0          
T        Si     0.696835000000     0.652555000000     0.194485000000     0          
T        Si     0.575455000000     0.526225000000     0.344675000000     0          
T        Si     0.604862500000     0.685870000000     0.289640000000     0          
T        Si     0.536407500000     0.613175000000     0.290385000000     0          
T        Si     0.603567500000     0.585770000000     0.441145000000     0          
T        Si     0.695260000000     0.677670000000     0.381650000000     0          
T        Si     0.573715000000     0.752095000000     0.347055000000     0          
O        O      0.708232500000     0.701400000000     0.175590000000     0          
O        O      0.659230000000     0.663160000000     0.212545000000     0          
O        O      0.744050000000     0.629000000000     0.237325000000     0          
O        O      0.660947500000     0.686390000000     0.323150000000     0          
O        O      0.674427500000     0.615330000000     0.149110000000     0          
O        O      0.583925000000     0.639000000000     0.426455000000     0          
O        O      0.549215000000     0.714000000000     0.365690000000     0          
O        O      0.545602500000     0.556945000000     0.294910000000     0          
O        O      0.583812500000     0.730250000000     0.304940000000     0          
O        O      0.591535000000     0.685845000000     0.231945000000     0          
O        O      0.584270000000     0.638570000000     0.300870000000     0          
O        O      0.578202500000     0.553395000000     0.391950000000     0          
O        O      0.747060000000     0.664415000000     0.392565000000     0          
O        O      0.551520000000     0.975095000000     0.337930000000     0          
O        O      0.628122500000     0.518355000000     0.355240000000     0          
O        O      0.523185000000     0.628035000000     0.332430000000     0          
T        Si     0.710942500000     0.912210000000     0.370185000000     0          
T        Si     0.553165000000     0.902555000000     0.055515000000     0          
T        Si     0.674545000000     0.776225000000     0.405325000000     0          
T        Si     0.645137500000     0.935870000000     0.460360000000     0          
T        Si     0.713592500000     0.863175000000     0.459615000000     0          
T        Si     0.646432500000     0.835770000000     0.308855000000     0          
T        Si     0.554740000000     0.927670000000     0.368350000000     0          
T        Si     0.676285000000     0.502095000000     0.402945000000     0          
O        O      0.541767500000     0.951400000000     0.074410000000     0          
O        O      0.590770000000     0.913160000000     0.037455000000     0          
O        O      0.505950000000     0.879000000000     0.012675000000     0          
O        O      0.589052500000     0.936390000000     0.426850000000     0          
O        O      0.575572500000     0.865330000000     0.100890000000     0          
O        O      0.666075000000     0.889000000000     0.323545000000     0          
O        O      0.700785000000     0.964000000000     0.384310000000     0          
O        O      0.704397500000     0.806945000000     0.455090000000     0          
O        O      0.666187500000     0.980250000000     0.445060000000     0          
O        O      0.658465000000     0.935845000000     0.018055000000     0          
O        O      0.665730000000     0.888570000000     0.449130000000     0          
O        O      0.671797500000     0.803395000000     0.358050000000     0          
O        O      0.502940000000     0.914415000000     0.357435000000     0          
O        O      0.698480000000     0.725095000000     0.412070000000     0          
O        O      0.621877500000     0.768355000000     0.394760000000     0          
O        O      0.726815000000     0.878035000000     0.417570000000     0          
T        Si     0.710942500000     0.837790000000     0.620185000000     0          
T        Si     0.553165000000     0.847445000000     0.805515000000     0          
T        Si     0.674545000000     0.973775000000     0.655325000000     0          
T        Si     0.645137500000     0.814130000000     0.710360000000     0          
T        Si     0.713592500000     0.886825000000     0.709615000000     0          
T        Si     0.646432500000     0.914230000000     0.558855000000     0          
T        Si     0.554740000000     0.822330000000     0.618350000000     0          
T        Si     0.676285000000     0.747905000000     0.652945000000     0          
O        O      0.541767500000     0.798600000000     0.824410000000     0          
O        O      0.590770000000     0.836840000000     0.787455000000     0          
O        O      0.505950000000     0.871000000000     0.762675000000     0          
O        O      0.589052500000     0.813610000000     0.676850000000     0          
O        O      0.575572500000     0.884670000000     0.850890000000     0          
O        O      0.666075000000     0.861000000000     0.573545000000     0          
O        O      0.700785000000     0.786000000000     0.634310000000     0          
O        O      0.704397500000     0.943055000000     0.705090000000     0          
O        O      0.666187500000     0.769750000000     0.695060000000     0          
O        O      0.658465000000     0.814155000000     0.768055000000     0          
O        O      0.665730000000     0.861430000000     0.699130000000     0          
O        O      0.671797500000     0.946605000000     0.608050000000     0          
O        O      0.502940000000     0.835585000000     0.607435000000     0          
O        O      0.698480000000     0.524905000000     0.662070000000     0          
O        O      0.621877500000     0.981645000000     0.644760000000     0          
O        O      0.726815000000     0.871965000000     0.667570000000     0          
T        Si     0.539057500000     0.587790000000     0.629815000000     0          
T        Si     0.696835000000     0.597445000000     0.944485000000     0          
T        Si     0.575455000000     0.723775000000     0.594675000000     0          
T        Si     0.604862500000     0.564130000000     0.539640000000     0          
T        Si     0.536407500000     0.636825000000     0.540385000000     0          
T        Si     0.603567500000     0.664230000000     0.691145000000     0          
T        Si     0.695260000000     0.572330000000     0.631650000000     0          
T        Si     0.573715000000     0.997905000000     0.597055000000     0          
O        O      0.708232500000     0.548600000000     0.925590000000     0          
O        O      0.659230000000     0.586840000000     0.962545000000     0          
O        O      0.744050000000     0.621000000000     0.987325000000     0          
O        O      0.660947500000     0.563610000000     0.573150000000     0          
O        O      0.674427500000     0.634670000000     0.899110000000     0          
O        O      0.583925000000     0.611000000000     0.676455000000     0          
O        O      0.549215000000     0.536000000000     0.615690000000     0          
O        O      0.545602500000     0.693055000000     0.544910000000     0          
O        O      0.583812500000     0.519750000000     0.554940000000     0          
O        O      0.591535000000     0.564155000000     0.981945000000     0          
O        O      0.584270000000     0.611430000000     0.550870000000     0          
O        O      0.578202500000     0.696605000000     0.641950000000     0          
O        O      0.747060000000     0.585585000000     0.642565000000     0          
O        O      0.551520000000     0.774905000000     0.587930000000     0          
O        O      0.628122500000     0.731645000000     0.605240000000     0          
O        O      0.523185000000     0.621965000000     0.582430000000     0          
T        Si     0.539057500000     0.662210000000     0.879815000000     0          
T        Si     0.696835000000     0.652555000000     0.694485000000     0          
T        Si     0.575455000000     0.526225000000     0.844675000000     0          
T        Si     0.604862500000     0.685870000000     0.789640000000     0          
T        Si     0.536407500000     0.613175000000     0.790385000000     0          
T        Si     0.603567500000     0.585770000000     0.941145000000     0          
T        Si     0.695260000000     0.677670000000     0.881650000000     0          
T        Si     0.573715000000     0.752095000000     0.847055000000     0          
O        O      0.708232500000     0.701400000000     0.675590000000     0          
O        O      0.659230000000     0.663160000000     0.712545000000     0          
O        O      0.744050000000     0.629000000000     0.737325000000     0          
O        O      0.660947500000     0.686390000000     0.823150000000     0          
O        O      0.674427500000     0.615330000000     0.649110000000     0          
O        O      0.583925000000     0.639000000000     0.926455000000     0          
O        O      0.549215000000     0.714000000000     0.865690000000     0          
O        O      0.545602500000     0.556945000000     0.794910000000     0          
O        O      0.583812500000     0.730250000000     0.804940000000     0          
O        O      0.591535000000     0.685845000000     0.731945000000     0          
O        O      0.584270000000     0.638570000000     0.800870000000     0          
O        O      0.578202500000     0.553395000000     0.891950000000     0          
O        O      0.747060000000     0.664415000000     0.892565000000     0          
O        O      0.551520000000     0.975095000000     0.837930000000     0          
O        O      0.628122500000     0.518355000000     0.855240000000     0          
O        O      0.523185000000     0.628035000000     0.832430000000     0          
T        Si     0.710942500000     0.912210000000     0.870185000000     0          
T        Si     0.553165000000     0.902555000000     0.555515000000     0          
T        Si     0.674545000000     0.776225000000     0.905325000000     0          
T        Si     0.645137500000     0.935870000000     0.960360000000     0          
T        Si     0.713592500000     0.863175000000     0.959615000000     0          
T        Si     0.646432500000     0.835770000000     0.808855000000     0          
T        Si     0.554740000000     0.927670000000     0.868350000000     0          
T        Si     0.676285000000     0.502095000000     0.902945000000     0          
O        O      0.541767500000     0.951400000000     0.574410000000     0          
O        O      0.590770000000     0.913160000000     0.537455000000     0          
O        O      0.505950000000     0.879000000000     0.512675000000     0          
O        O      0.589052500000     0.936390000000     0.926850000000     0          
O        O      0.575572500000     0.865330000000     0.600890000000     0          
O        O      0.666075000000     0.889000000000     0.823545000000     0          
O        O      0.700785000000     0.964000000000     0.884310000000     0          
O        O      0.704397500000     0.806945000000     0.955090000000     0          
O        O      0.666187500000     0.980250000000     0.945060000000     0          
O        O      0.658465000000     0.935845000000     0.518055000000     0          
O        O      0.665730000000     0.888570000000     0.949130000000     0          
O        O      0.671797500000     0.803395000000     0.858050000000     0          
O        O      0.502940000000     0.914415000000     0.857435000000     0          
O        O      0.698480000000     0.725095000000     0.912070000000     0          
O        O      0.621877500000     0.768355000000     0.894760000000     0          
O        O      0.726815000000     0.878035000000     0.917570000000     0          
T        Si     0.960942500000     0.337790000000     0.120185000000     0          
T        Si     0.803165000000     0.347445000000     0.305515000000     0          
T        Si     0.924545000000     0.473775000000     0.155325000000     0          
T        Si     0.895137500000     0.314130000000     0.210360000000     0          
T        Si     0.963592500000     0.386825000000     0.209615000000     0          
T        Si     0.896432500000     0.414230000000     0.058855000000     0          
T        Si     0.804740000000     0.322330000000     0.118350000000     0          
T        Si     0.926285000000     0.247905000000     0.152945000000     0          
O        O      0.791767500000     0.298600000000     0.324410000000     0          
O        O      0.840770000000     0.336840000000     0.287455000000     0          
O        O      0.755950000000     0.371000000000     0.262675000000     0          
O        O      0.839052500000     0.313610000000     0.176850000000     0          
O        O      0.825572500000     0.384670000000     0.350890000000     0          
O        O      0.916075000000     0.361000000000     0.073545000000     0          
O        O      0.950785000000     0.286000000000     0.134310000000     0          
O        O      0.954397500000     0.443055000000     0.205090000000     0          
O        O      0.916187500000     0.269750000000     0.195060000000     0          
O        O      0.908465000000     0.314155000000     0.268055000000     0          
O        O      0.915730000000     0.361430000000     0.199130000000     0          
O        O      0.921797500000     0.446605000000     0.108050000000     0          
O        O      0.752940000000     0.335585000000     0.107435000000     0          
O        O      0.948480000000     0.024905000000     0.162070000000     0          
O        O      0.871877500000     0.481645000000     0.144760000000     0          
O        O      0.976815000000     0.371965000000     0.167570000000     0          
T        Si     0.789057500000     0.087790000000     0.129815000000     0          
T        Si     0.946835000000     0.097445000000     0.444485000000     0          
T        Si     0.825455000000     0.223775000000     0.094675000000     0          
T        Si     0.854862500000     0.064130000000     0.039640000000     0          
T        Si     0.786407500000     0.136825000000     0.040385000000     0          
T        Si     0.853567500000     0.164230000000     0.191145000000     0          
T        Si     0.945260000000     0.072330000000     0.131650000000     0          
T        Si     0.823715000000     0.497905000000     0.097055000000     0          
O        O      0.958232500000     0.048600000000     0.425590000000     0          
O        O      0.909230000000     0.086840000000     0.462545000000     0          
O        O      0.994050000000     0.121000000000     0.487325000000     0          
O        O      0.910947500000     0.063610000000     0.073150000000     0          
O        O      0.924427500000     0.134670000000     0.399110000000     0          
O        O      0.833925000000     0.111000000000     0.176455000000     0          
O        O      0.799215000000     0.036000000000     0.115690000000     0          
O        O      0.795602500000     0.193055000000     0.044910000000     0          
O        O      0.833812500000     0.019750000000     0.054940000000     0          
O        O      0.841535000000     0.064155000000     0.481945000000     0          
O        O      0.834270000000     0.111430000000     0.050870000000     0          
O        O      0.828202500000     0.196605000000     0.141950000000     0          
O        O      0.997060000000     0.085585000000     0.142565000000     0          
O        O      0.801520000000     0.274905000000     0.087930000000     0          
O        O      0.878122500000     0.231645000000     0.105240000000     0          
O        O      0.773185000000     0.121965000000     0.082430000000     0          
T        Si     0.789057500000     0.162210000000     0.379815000000     0          
T        Si     0.946835000000     0.152555000000     0.194485000000     0          
T        Si     0.825455000000     0.026225000000     0.344675000000     0          
T        Si     0.854862500000     0.185870000000     0.289640000000     0          
T        Si     0.786407500000     0.113175000000     0.290385000000     0          
T        Si     0.853567500000     0.085770000000     0.441145000000     0          
T        Si     0.945260000000     0.177670000000     0.381650000000     0          
T        Si     0.823715000000     0.252095000000     0.347055000000     0          
O        O      0.958232500000     0.201400000000     0.175590000000     0          
O        O      0.909230000000     0.163160000000     0.212545000000     0          
O        O      0.994050000000     0.129000000000     0.237325000000     0          
O        O      0.910947500000     0.186390000000     0.323150000000     0          
O        O      0.924427500000     0.115330000000     0.149110000000     0          
O        O      0.833925000000     0.139000000000     0.426455000000     0          
O        O      0.799215000000     0.214000000000     0.365690000000     0          
O        O      0.795602500000     0.056945000000     0.294910000000     0          
O        O      0.833812500000     0.230250000000     0.304940000000     0          
O        O      0.841535000000     0.185845000000     0.231945000000     0          
O        O      0.834270000000     0.138570000000     0.300870000000     0          
O        O      0.828202500000     0.053395000000     0.391950000000     0          
O        O      0.997060000000     0.164415000000     0.392565000000     0          
O        O      0.801520000000     0.475095000000     0.337930000000     0          
O        O      0.878122500000     0.018355000000     0.355240000000     0          
O        O      0.773185000000     0.128035000000     0.332430000000     0          
T        Si     0.960942500000     0.412210000000     0.370185000000     0          
T        Si     0.803165000000     0.402555000000     0.055515000000     0          
T        Si     0.924545000000     0.276225000000     0.405325000000     0          
T        Si     0.895137500000     0.435870000000     0.460360000000     0          
T        Si     0.963592500000     0.363175000000     0.459615000000     0          
T        Si     0.896432500000     0.335770000000     0.308855000000     0          
T        Si     0.804740000000     0.427670000000     0.368350000000     0          
T        Si     0.926285000000     0.002095000000     0.402945000000     0          
O        O      0.791767500000     0.451400000000     0.074410000000     0          
O        O      0.840770000000     0.413160000000     0.037455000000     0          
O        O      0.755950000000     0.379000000000     0.012675000000     0          
O        O      0.839052500000     0.436390000000     0.426850000000     0          
O        O      0.825572500000     0.365330000000     0.100890000000     0          
O        O      0.916075000000     0.389000000000     0.323545000000     0          
O        O      0.950785000000     0.464000000000     0.384310000000     0          
O        O      0.954397500000     0.306945000000     0.455090000000     0          
O        O      0.916187500000     0.480250000000     0.445060000000     0          
O        O      0.908465000000     0.435845000000     0.018055000000     0          
O        O      0.915730000000     0.388570000000     0.449130000000     0          
O        O      0.921797500000     0.303395000000     0.358050000000     0          
O        O      0.752940000000     0.414415000000     0.357435000000     0          
O        O      0.948480000000     0.225095000000     0.412070000000     0          
O        O      0.871877500000     0.268355000000     0.394760000000     0          
O        O      0.976815000000     0.378035000000     0.417570000000     0          
T        Si     0.960942500000     0.337790000000     0.620185000000     0          
T        Si     0.803165000000     0.347445000000     0.805515000000     0          
T        Si     0.924545000000     0.473775000000     0.655325000000     0          
T        Si     0.895137500000     0.314130000000     0.710360000000     0          
T        Si     0.963592500000     0.386825000000     0.709615000000     0          
T        Si     0.896432500000     0.414230000000     0.558855000000     0          
T        Si     0.804740000000     0.322330000000     0.618350000000     0          
T        Si     0.926285000000     0.247905000000     0.652945000000     0          
O        O      0.791767500000     0.298600000000     0.824410000000     0          
O        O      0.840770000000     0.336840000000     0.787455000000     0          
O        O      0.755950000000     0.371000000000     0.762675000000     0          
O        O      0.839052500000     0.313610000000     0.676850000000     0          
O        O      0.825572500000     0.384670000000     0.850890000000     0          
O        O      0.916075000000     0.361000000000     0.573545000000     0          
O        O      0.950785000000     0.286000000000     0.634310000000     0          
O        O      0.954397500000     0.443055000000     0.705090000000     0          
O        O      0.916187500000     0.269750000000     0.695060000000     0          
O        O      0.908465000000     0.314155000000     0.768055000000     0          
O        O      0.915730000000     0.361430000000     0.699130000000     0          
O        O      0.921797500000     0.446605000000     0.608050000000     0          
O        O      0.752940000000     0.335585000000     0.607435000000     0          
O        O      0.948480000000     0.024905000000     0.662070000000     0          
O        O      0.871877500000     0.481645000000     0.644760000000     0          
O        O      0.976815000000     0.371965000000     0.667570000000     0          
T        Si     0.789057500000     0.087790000000     0.629815000000     0          
T        Si     0.946835000000     0.097445000000     0.944485000000     0          
T        Si     0.825455000000     0.223775000000     0.594675000000     0          
T        Si     0.854862500000     0.064130000000     0.539640000000     0          
T        Si     0.786407500000     0.136825000000     0.540385000000     0          
T        Si     0.853567500000     0.164230000000     0.691145000000     0          
T        Si     0.945260000000     0.072330000000     0.631650000000     0          
T        Si     0.823715000000     0.497905000000     0.597055000000     0          
O        O      0.958232500000     0.048600000000     0.925590000000     0          
O        O      0.909230000000     0.086840000000     0.962545000000     0          
O        O      0.994050000000     0.121000000000     0.987325000000     0          
O        O      0.910947500000     0.063610000000     0.573150000000     0          
O        O      0.924427500000     0.134670000000     0.899110000000     0          
O        O      0.833925000000     0.111000000000     0.676455000000     0          
O        O      0.799215000000     0.036000000000     0.615690000000     0          
O        O      0.795602500000     0.193055000000     0.544910000000     0          
O        O      0.833812500000     0.019750000000     0.554940000000     0          
O        O      0.841535000000     0.064155000000     0.981945000000     0          
O        O      0.834270000000     0.111430000000     0.550870000000     0          
O        O      0.828202500000     0.196605000000     0.641950000000     0          
O        O      0.997060000000     0.085585000000     0.642565000000     0          
O        O      0.801520000000     0.274905000000     0.587930000000     0          
O        O      0.878122500000     0.231645000000     0.605240000000     0          
O        O      0.773185000000     0.121965000000     0.582430000000     0          
T        Si     0.789057500000     0.162210000000     0.879815000000     0          
T        Si     0.946835000000     0.152555000000     0.694485000000     0          
T        Si     0.825455000000     0.026225000000     0.844675000000     0          
T        Si     0.854862500000     0.185870000000     0.789640000000     0          
T        Si     0.786407500000     0.113175000000     0.790385000000     0          
T        Si     0.853567500000     0.085770000000     0.941145000000     0          
T        Si     0.945260000000     0.177670000000     0.881650000000     0          
T        Si     0.823715000000     0.252095000000     0.847055000000     0          
O        O      0.958232500000     0.201400000000     0.675590000000     0          
O        O      0.909230000000     0.163160000000     0.712545000000     0          
O        O      0.994050000000     0.129000000000     0.737325000000     0          
O        O      0.910947500000     0.186390000000     0.823150000000     0          
O        O      0.924427500000     0.115330000000     0.649110000000     0          
O        O      0.833925000000     0.139000000000     0.926455000000     0          
O        O      0.799215000000     0.214000000000     0.865690000000     0          
O        O      0.795602500000     0.056945000000     0.794910000000     0          
O        O      0.833812500000     0.230250000000     0.804940000000     0          
O        O      0.841535000000     0.185845000000     0.731945000000     0          
O        O      0.834270000000     0.138570000000     0.800870000000     0          
O        O      0.828202500000     0.053395000000     0.891950000000     0          
O        O      0.997060000000     0.164415000000     0.892565000000     0          
O        O      0.801520000000     0.475095000000     0.837930000000     0          
O        O      0.878122500000     0.018355000000     0.855240000000     0          
O        O      0.773185000000     0.128035000000     0.832430000000     0          
T        Si     0.960942500000     0.412210000000     0.870185000000     0          
T        Si     0.803165000000     0.402555000000     0.555515000000     0          
T        Si     0.924545000000     0.276225000000     0.905325000000     0          
T        Si     0.895137500000     0.435870000000     0.960360000000     0          
T        Si     0.963592500000     0.363175000000     0.959615000000     0          
T        Si     0.896432500000     0.335770000000     0.808855000000     0          
T        Si     0.804740000000     0.427670000000     0.868350000000     0          
T        Si     0.926285000000     0.002095000000     0.902945000000     0          
O        O      0.791767500000     0.451400000000     0.574410000000     0          
O        O      0.840770000000     0.413160000000     0.537455000000     0          
O        O      0.755950000000     0.379000000000     0.512675000000     0          
O        O      0.839052500000     0.436390000000     0.926850000000     0          
O        O      0.825572500000     0.365330000000     0.600890000000     0          
O        O      0.916075000000     0.389000000000     0.823545000000     0          
O        O      0.950785000000     0.464000000000     0.884310000000     0          
O        O      0.954397500000     0.306945000000     0.955090000000     0          
O        O      0.916187500000     0.480250000000     0.945060000000     0          
O        O      0.908465000000     0.435845000000     0.518055000000     0          
O        O      0.915730000000     0.388570000000     0.949130000000     0          
O        O      0.921797500000     0.303395000000     0.858050000000     0          
O        O      0.752940000000     0.414415000000     0.857435000000     0          
O        O      0.948480000000     0.225095000000     0.912070000000     0          
O        O      0.871877500000     0.268355000000     0.894760000000     0          
O        O      0.976815000000     0.378035000000     0.917570000000     0          
T        Si     0.960942500000     0.837790000000     0.120185000000     0          
T        Si     0.803165000000     0.847445000000     0.305515000000     0          
T        Si     0.924545000000     0.973775000000     0.155325000000     0          
T        Si     0.895137500000     0.814130000000     0.210360000000     0          
T        Si     0.963592500000     0.886825000000     0.209615000000     0          
T        Si     0.896432500000     0.914230000000     0.058855000000     0          
T        Si     0.804740000000     0.822330000000     0.118350000000     0          
T        Si     0.926285000000     0.747905000000     0.152945000000     0          
O        O      0.791767500000     0.798600000000     0.324410000000     0          
O        O      0.840770000000     0.836840000000     0.287455000000     0          
O        O      0.755950000000     0.871000000000     0.262675000000     0          
O        O      0.839052500000     0.813610000000     0.176850000000     0          
O        O      0.825572500000     0.884670000000     0.350890000000     0          
O        O      0.916075000000     0.861000000000     0.073545000000     0          
O        O      0.950785000000     0.786000000000     0.134310000000     0          
O        O      0.954397500000     0.943055000000     0.205090000000     0          
O        O      0.916187500000     0.769750000000     0.195060000000     0          
O        O      0.908465000000     0.814155000000     0.268055000000     0          
O        O      0.915730000000     0.861430000000     0.199130000000     0          
O        O      0.921797500000     0.946605000000     0.108050000000     0          
O        O      0.752940000000     0.835585000000     0.107435000000     0          
O        O      0.948480000000     0.524905000000     0.162070000000     0          
O        O      0.871877500000     0.981645000000     0.144760000000     0          
O        O      0.976815000000     0.871965000000     0.167570000000     0          
T        Si     0.789057500000     0.587790000000     0.129815000000     0          
T        Si     0.946835000000     0.597445000000     0.444485000000     0          
T        Si     0.825455000000     0.723775000000     0.094675000000     0          
T        Si     0.854862500000     0.564130000000     0.039640000000     0          
T        Si     0.786407500000     0.636825000000     0.040385000000     0          
T        Si     0.853567500000     0.664230000000     0.191145000000     0          
T        Si     0.945260000000     0.572330000000     0.131650000000     0          
T        Si     0.823715000000     0.997905000000     0.097055000000     0          
O        O      0.958232500000     0.548600000000     0.425590000000     0          
O        O      0.909230000000     0.586840000000     0.462545000000     0          
O        O      0.994050000000     0.621000000000     0.487325000000     0          
O        O      0.910947500000     0.563610000000     0.073150000000     0          
O        O      0.924427500000     0.634670000000     0.399110000000     0          
O        O      0.833925000000     0.611000000000     0.176455000000     0          
O        O      0.799215000000     0.536000000000     0.115690000000     0          
O        O      0.795602500000     0.693055000000     0.044910000000     0          
O        O      0.833812500000     0.519750000000     0.054940000000     0          
O        O      0.841535000000     0.564155000000     0.481945000000     0          
O        O      0.834270000000     0.611430000000     0.050870000000     0          
O        O      0.828202500000     0.696605000000     0.141950000000     0          
O        O      0.997060000000     0.585585000000     0.142565000000     0          
O        O      0.801520000000     0.774905000000     0.087930000000     0          
O        O      0.878122500000     0.731645000000     0.105240000000     0          
O        O      0.773185000000     0.621965000000     0.082430000000     0          
T        Si     0.789057500000     0.662210000000     0.379815000000     0          
T        Si     0.946835000000     0.652555000000     0.194485000000     0          
T        Si     0.825455000000     0.526225000000     0.344675000000     0          
T        Si     0.854862500000     0.685870000000     0.289640000000     0          
T        Si     0.786407500000     0.613175000000     0.290385000000     0          
T        Si     0.853567500000     0.585770000000     0.441145000000     0          
T        Si     0.945260000000     0.677670000000     0.381650000000     0          
T        Si     0.823715000000     0.752095000000     0.347055000000     0          
O        O      0.958232500000     0.701400000000     0.175590000000     0          
O        O      0.909230000000     0.663160000000     0.212545000000     0          
O        O      0.994050000000     0.629000000000     0.237325000000     0          
O        O      0.910947500000     0.686390000000     0.323150000000     0          
O        O      0.924427500000     0.615330000000     0.149110000000     0          
O        O      0.833925000000     0.639000000000     0.426455000000     0          
O        O      0.799215000000     0.714000000000     0.365690000000     0          
O        O      0.795602500000     0.556945000000     0.294910000000     0          
O        O      0.833812500000     0.730250000000     0.304940000000     0          
O        O      0.841535000000     0.685845000000     0.231945000000     0          
O        O      0.834270000000     0.638570000000     0.300870000000     0          
O        O      0.828202500000     0.553395000000     0.391950000000     0          
O        O      0.997060000000     0.664415000000     0.392565000000     0          
O        O      0.801520000000     0.975095000000     0.337930000000     0          
O        O      0.878122500000     0.518355000000     0.355240000000     0          
O        O      0.773185000000     0.628035000000     0.332430000000     0          
T        Si     0.960942500000     0.912210000000     0.370185000000     0          
T        Si     0.803165000000     0.902555000000     0.055515000000     0          
T        Si     0.924545000000     0.776225000000     0.405325000000     0          
T        Si     0.895137500000     0.935870000000     0.460360000000     0          
T        Si     0.963592500000     0.863175000000     0.459615000000     0          
T        Si     0.896432500000     0.835770000000     0.308855000000     0          
T        Si     0.804740000000     0.927670000000     0.368350000000     0          
T        Si     0.926285000000     0.502095000000     0.402945000000     0          
O        O      0.791767500000     0.951400000000     0.074410000000     0          
O        O      0.840770000000     0.913160000000     0.037455000000     0          
O        O      0.755950000000     0.879000000000     0.012675000000     0          
O        O      0.839052500000     0.936390000000     0.426850000000     0          
O        O      0.825572500000     0.865330000000     0.100890000000     0          
O        O      0.916075000000     0.889000000000     0.323545000000     0          
O        O      0.950785000000     0.964000000000     0.384310000000     0          
O        O      0.954397500000     0.806945000000     0.455090000000     0          
O        O      0.916187500000     0.980250000000     0.445060000000     0          
O        O      0.908465000000     0.935845000000     0.018055000000     0          
O        O      0.915730000000     0.888570000000     0.449130000000     0          
O        O      0.921797500000     0.803395000000     0.358050000000     0          
O        O      0.752940000000     0.914415000000     0.357435000000     0          
O        O      0.948480000000     0.725095000000     0.412070000000     0          
O        O      0.871877500000     0.768355000000     0.394760000000     0          
O        O      0.976815000000     0.878035000000     0.417570000000     0          
T        Si     0.960942500000     0.837790000000     0.620185000000     0          
T        Si     0.803165000000     0.847445000000     0.805515000000     0          
T        Si     0.924545000000     0.973775000000     0.655325000000     0          
T        Si     0.895137500000     0.814130000000     0.710360000000     0          
T        Si     0.963592500000     0.886825000000     0.709615000000     0          
T        Si     0.896432500000     0.914230000000     0.558855000000     0          
T        Si     0.804740000000     0.822330000000     0.618350000000     0          
T        Si     0.926285000000     0.747905000000     0.652945000000     0          
O        O      0.791767500000     0.798600000000     0.824410000000     0          
O        O      0.840770000000     0.836840000000     0.787455000000     0          
O        O      0.755950000000     0.871000000000     0.762675000000     0          
O        O      0.839052500000     0.813610000000     0.676850000000     0          
O        O      0.825572500000     0.884670000000     0.850890000000     0          
O        O      0.916075000000     0.861000000000     0.573545000000     0          
O        O      0.950785000000     0.786000000000     0.634310000000     0          
O        O      0.954397500000     0.943055000000     0.705090000000     0          
O        O      0.916187500000     0.769750000000     0.695060000000     0          
O        O      0.908465000000     0.814155000000     0.768055000000     0          
O        O      0.915730000000     0.861430000000     0.699130000000     0          
O        O      0.921797500000     0.946605000000     0.608050000000     0          
O        O      0.752940000000     0.835585000000     0.607435000000     0          
O        O      0.948480000000     0.524905000000     0.662070000000     0          
O        O      0.871877500000     0.981645000000     0.644760000000     0          
O        O      0.976815000000     0.871965000000     0.667570000000     0          
T        Si     0.789057500000     0.587790000000     0.629815000000     0          
T        Si     0.946835000000     0.597445000000     0.944485000000     0          
T        Si     0.825455000000     0.723775000000     0.594675000000     0          
T        Si     0.854862500000     0.564130000000     0.539640000000     0          
T        Si     0.786407500000     0.636825000000     0.540385000000     0          
T        Si     0.853567500000     0.664230000000     0.691145000000     0          
T        Si     0.945260000000     0.572330000000     0.631650000000     0          
T        Si     0.823715000000     0.997905000000     0.597055000000     0          
O        O      0.958232500000     0.548600000000     0.925590000000     0          
O        O      0.909230000000     0.586840000000     0.962545000000     0          
O        O      0.994050000000     0.621000000000     0.987325000000     0          
O        O      0.910947500000     0.563610000000     0.573150000000     0          
O        O      0.924427500000     0.634670000000     0.899110000000     0          
O        O      0.833925000000     0.611000000000     0.676455000000     0          
O        O      0.799215000000     0.536000000000     0.615690000000     0          
O        O      0.795602500000     0.693055000000     0.544910000000     0          
O        O      0.833812500000     0.519750000000     0.554940000000     0          
O        O      0.841535000000     0.564155000000     0.981945000000     0          
O        O      0.834270000000     0.611430000000     0.550870000000     0          
O        O      0.828202500000     0.696605000000     0.641950000000     0          
O        O      0.997060000000     0.585585000000     0.642565000000     0          
O        O      0.801520000000     0.774905000000     0.587930000000     0          
O        O      0.878122500000     0.731645000000     0.605240000000     0          
O        O      0.773185000000     0.621965000000     0.582430000000     0          
T        Si     0.789057500000     0.662210000000     0.879815000000     0          
T        Si     0.946835000000     0.652555000000     0.694485000000     0          
T        Si     0.825455000000     0.526225000000     0.844675000000     0          
T        Si     0.854862500000     0.685870000000     0.789640000000     0          
T        Si     0.786407500000     0.613175000000     0.790385000000     0          
T        Si     0.853567500000     0.585770000000     0.941145000000     0          
T        Si     0.945260000000     0.677670000000     0.881650000000     0          
T        Si     0.823715000000     0.752095000000     0.847055000000     0          
O        O      0.958232500000     0.701400000000     0.675590000000     0          
O        O      0.909230000000     0.663160000000     0.712545000000     0          
O        O      0.994050000000     0.629000000000     0.737325000000     0          
O        O      0.910947500000     0.686390000000     0.823150000000     0          
O        O      0.924427500000     0.615330000000     0.649110000000     0          
O        O      0.833925000000     0.639000000000     0.926455000000     0          
O        O      0.799215000000     0.714000000000     0.865690000000     0          
O        O      0.795602500000     0.556945000000     0.794910000000     0          
O        O      0.833812500000     0.730250000000     0.804940000000     0          
O        O      0.841535000000     0.685845000000     0.731945000000     0          
O        O      0.834270000000     0.638570000000     0.800870000000     0          
O        O      0.828202500000     0.553395000000     0.891950000000     0          
O        O      0.997060000000     0.664415000000     0.892565000000     0          
O        O      0.801520000000     0.975095000000     0.837930000000     0          
O        O      0.878122500000     0.518355000000     0.855240000000     0          
O        O      0.773185000000     0.628035000000     0.832430000000     0          
T        Si     0.960942500000     0.912210000000     0.870185000000     0          
T        Si     0.803165000000     0.902555000000     0.555515000000     0          
T        Si     0.924545000000     0.776225000000     0.905325000000     0          
T        Si     0.895137500000     0.935870000000     0.960360000000     0          
T        Si     0.963592500000     0.863175000000     0.959615000000     0          
T        Si     0.896432500000     0.835770000000     0.808855000000     0          
T        Si     0.804740000000     0.927670000000     0.868350000000     0          
T        Si     0.926285000000     0.502095000000     0.902945000000     0          
O        O      0.791767500000     0.951400000000     0.574410000000     0          
O        O      0.840770000000     0.913160000000     0.537455000000     0          
O        O      0.755950000000     0.879000000000     0.512675000000     0          
O        O      0.839052500000     0.936390000000     0.926850000000     0          
O        O      0.825572500000     0.865330000000     0.600890000000     0          
O        O      0.916075000000     0.889000000000     0.823545000000     0          
O        O      0.950785000000     0.964000000000     0.884310000000     0          
O        O      0.954397500000     0.806945000000     0.955090000000     0          
O        O      0.916187500000     0.980250000000     0.945060000000     0          
O        O      0.908465000000     0.935845000000     0.518055000000     0          
O        O      0.915730000000     0.888570000000     0.949130000000     0          
O        O      0.921797500000     0.803395000000     0.858050000000     0          
O        O      0.752940000000     0.914415000000     0.857435000000     0          
O        O      0.948480000000     0.725095000000     0.912070000000     0          
O        O      0.871877500000     0.768355000000     0.894760000000     0          
O        O      0.976815000000     0.878035000000     0.917570000000     0          


