data_zeolite

_audit_creation_method RASPA-1.0
_audit_creation_date 2021-6-6
_audit_author_name ''

_cell_length_a    26.06
_cell_length_b    27.768
_cell_length_c    45.72
_cell_angle_alpha 90
_cell_angle_beta  90
_cell_angle_gamma 90
_cell_volume      33084.6

_symmetry_cell_setting          orthorhombic
_symmetry_space_group_name_Hall 'P 1'
_symmetry_space_group_name_H-M  'P 1'
_symmetry_Int_Tables_number     1

_symmetry_equiv_pos_as_xyz 'x,y,z'

loop_
_atom_site_label
_atom_site_type_symbol
_atom_site_fract_x
_atom_site_fract_y
_atom_site_fract_z
_atom_site_charge
O        O      0.347900000000     0.127050000000     0.431350000000     0          
O        O      0.320100000000     0.125000000000     0.375000000000     0          
O        O      0.250000000000     0.125000000000     0.416000000000     0          
O        O      0.308100000000     0.048750000000     0.410900000000     0          
O        O      0.598800000000     0.202900000000     0.421000000000     0          
O        O      0.586900000000     0.167100000000     0.471850000000     0          
O        O      0.550600000000     0.122500000000     0.425500000000     0          
O        O      0.348900000000     0.250000000000     0.381650000000     0          
O        O      0.250000000000     0.250000000000     0.375000000000     0          
O        O      0.550400000000     0.250000000000     0.379900000000     0          
O        O      0.500000000000     0.315850000000     0.000000000000     0          
O        O      0.572500000000     0.250000000000     0.000000000000     0          
O        O      0.500000000000     0.202250000000     0.340000000000     0          
O        O      0.500000000000     0.125000000000     0.375000000000     0          
T        Si     0.307000000000     0.106750000000     0.407750000000     0          
T        Si     0.598200000000     0.152650000000     0.438400000000     0          
T        Si     0.303700000000     0.250000000000     0.357800000000     0          
T        Si     0.599700000000     0.250000000000     0.400900000000     0          
T        Si     0.561200000000     0.307100000000     0.000000000000     0          
T        Si     0.500000000000     0.144350000000     0.341850000000     0          
T        Si     0.500000000000     0.250000000000     0.359800000000     0          
O        O      0.652100000000     0.372950000000     0.431350000000     0          
O        O      0.679900000000     0.375000000000     0.375000000000     0          
O        O      0.750000000000     0.375000000000     0.416000000000     0          
O        O      0.691900000000     0.451250000000     0.410900000000     0          
O        O      0.401200000000     0.297100000000     0.421000000000     0          
O        O      0.413100000000     0.332900000000     0.471850000000     0          
O        O      0.449400000000     0.377500000000     0.425500000000     0          
O        O      0.651100000000     0.250000000000     0.381650000000     0          
O        O      0.750000000000     0.250000000000     0.375000000000     0          
O        O      0.449600000000     0.250000000000     0.379900000000     0          
O        O      0.500000000000     0.184150000000     0.000000000000     0          
O        O      0.427500000000     0.250000000000     0.000000000000     0          
O        O      0.500000000000     0.297750000000     0.340000000000     0          
O        O      0.500000000000     0.375000000000     0.375000000000     0          
T        Si     0.693000000000     0.393250000000     0.407750000000     0          
T        Si     0.401800000000     0.347350000000     0.438400000000     0          
T        Si     0.696300000000     0.250000000000     0.357800000000     0          
T        Si     0.400300000000     0.250000000000     0.400900000000     0          
T        Si     0.438800000000     0.192900000000     0.000000000000     0          
T        Si     0.500000000000     0.355650000000     0.341850000000     0          
O        O      0.347900000000     0.372950000000     0.068650000000     0          
O        O      0.320100000000     0.375000000000     0.125000000000     0          
O        O      0.250000000000     0.375000000000     0.084000000000     0          
O        O      0.308100000000     0.451250000000     0.089100000000     0          
O        O      0.598800000000     0.297100000000     0.079000000000     0          
O        O      0.586900000000     0.332900000000     0.028150000000     0          
O        O      0.550600000000     0.377500000000     0.074500000000     0          
O        O      0.348900000000     0.250000000000     0.118350000000     0          
O        O      0.250000000000     0.250000000000     0.125000000000     0          
O        O      0.550400000000     0.250000000000     0.120100000000     0          
O        O      0.500000000000     0.297750000000     0.160000000000     0          
O        O      0.500000000000     0.375000000000     0.125000000000     0          
T        Si     0.307000000000     0.393250000000     0.092250000000     0          
T        Si     0.598200000000     0.347350000000     0.061600000000     0          
T        Si     0.303700000000     0.250000000000     0.142200000000     0          
T        Si     0.599700000000     0.250000000000     0.099100000000     0          
T        Si     0.561200000000     0.192900000000     0.000000000000     0          
T        Si     0.500000000000     0.355650000000     0.158150000000     0          
T        Si     0.500000000000     0.250000000000     0.140200000000     0          
O        O      0.652100000000     0.127050000000     0.068650000000     0          
O        O      0.679900000000     0.125000000000     0.125000000000     0          
O        O      0.750000000000     0.125000000000     0.084000000000     0          
O        O      0.691900000000     0.048750000000     0.089100000000     0          
O        O      0.401200000000     0.202900000000     0.079000000000     0          
O        O      0.413100000000     0.167100000000     0.028150000000     0          
O        O      0.449400000000     0.122500000000     0.074500000000     0          
O        O      0.651100000000     0.250000000000     0.118350000000     0          
O        O      0.750000000000     0.250000000000     0.125000000000     0          
O        O      0.449600000000     0.250000000000     0.120100000000     0          
O        O      0.500000000000     0.202250000000     0.160000000000     0          
O        O      0.500000000000     0.125000000000     0.125000000000     0          
T        Si     0.693000000000     0.106750000000     0.092250000000     0          
T        Si     0.401800000000     0.152650000000     0.061600000000     0          
T        Si     0.696300000000     0.250000000000     0.142200000000     0          
T        Si     0.400300000000     0.250000000000     0.099100000000     0          
T        Si     0.438800000000     0.307100000000     0.000000000000     0          
T        Si     0.500000000000     0.144350000000     0.158150000000     0          
O        O      0.652100000000     0.372950000000     0.068650000000     0          
O        O      0.679900000000     0.375000000000     0.125000000000     0          
O        O      0.750000000000     0.375000000000     0.084000000000     0          
O        O      0.691900000000     0.451250000000     0.089100000000     0          
O        O      0.401200000000     0.297100000000     0.079000000000     0          
O        O      0.413100000000     0.332900000000     0.028150000000     0          
O        O      0.449400000000     0.377500000000     0.074500000000     0          
T        Si     0.693000000000     0.393250000000     0.092250000000     0          
T        Si     0.401800000000     0.347350000000     0.061600000000     0          
O        O      0.347900000000     0.127050000000     0.068650000000     0          
O        O      0.320100000000     0.125000000000     0.125000000000     0          
O        O      0.250000000000     0.125000000000     0.084000000000     0          
O        O      0.308100000000     0.048750000000     0.089100000000     0          
O        O      0.598800000000     0.202900000000     0.079000000000     0          
O        O      0.586900000000     0.167100000000     0.028150000000     0          
O        O      0.550600000000     0.122500000000     0.074500000000     0          
T        Si     0.307000000000     0.106750000000     0.092250000000     0          
T        Si     0.598200000000     0.152650000000     0.061600000000     0          
O        O      0.652100000000     0.127050000000     0.431350000000     0          
O        O      0.679900000000     0.125000000000     0.375000000000     0          
O        O      0.750000000000     0.125000000000     0.416000000000     0          
O        O      0.691900000000     0.048750000000     0.410900000000     0          
O        O      0.401200000000     0.202900000000     0.421000000000     0          
O        O      0.413100000000     0.167100000000     0.471850000000     0          
O        O      0.449400000000     0.122500000000     0.425500000000     0          
T        Si     0.693000000000     0.106750000000     0.407750000000     0          
T        Si     0.401800000000     0.152650000000     0.438400000000     0          
O        O      0.347900000000     0.372950000000     0.431350000000     0          
O        O      0.320100000000     0.375000000000     0.375000000000     0          
O        O      0.250000000000     0.375000000000     0.416000000000     0          
O        O      0.308100000000     0.451250000000     0.410900000000     0          
O        O      0.598800000000     0.297100000000     0.421000000000     0          
O        O      0.586900000000     0.332900000000     0.471850000000     0          
O        O      0.550600000000     0.377500000000     0.425500000000     0          
T        Si     0.307000000000     0.393250000000     0.407750000000     0          
T        Si     0.598200000000     0.347350000000     0.438400000000     0          
O        O      0.347900000000     0.377050000000     0.181350000000     0          
O        O      0.250000000000     0.375000000000     0.166000000000     0          
O        O      0.308100000000     0.298750000000     0.160900000000     0          
O        O      0.598800000000     0.452900000000     0.171000000000     0          
O        O      0.586900000000     0.417100000000     0.221850000000     0          
O        O      0.550600000000     0.372500000000     0.175500000000     0          
O        O      0.348900000000     0.000000000000     0.131650000000     0          
O        O      0.250000000000     0.000000000000     0.125000000000     0          
O        O      0.550400000000     0.000000000000     0.129900000000     0          
O        O      0.500000000000     0.065850000000     0.250000000000     0          
O        O      0.572500000000     0.000000000000     0.250000000000     0          
O        O      0.500000000000     0.452250000000     0.090000000000     0          
T        Si     0.307000000000     0.356750000000     0.157750000000     0          
T        Si     0.598200000000     0.402650000000     0.188400000000     0          
T        Si     0.303700000000     0.000000000000     0.107800000000     0          
T        Si     0.599700000000     0.000000000000     0.150900000000     0          
T        Si     0.561200000000     0.057100000000     0.250000000000     0          
T        Si     0.500000000000     0.394350000000     0.091850000000     0          
T        Si     0.500000000000     0.000000000000     0.109800000000     0          
O        O      0.652100000000     0.122950000000     0.181350000000     0          
O        O      0.750000000000     0.125000000000     0.166000000000     0          
O        O      0.691900000000     0.201250000000     0.160900000000     0          
O        O      0.401200000000     0.047100000000     0.171000000000     0          
O        O      0.413100000000     0.082900000000     0.221850000000     0          
O        O      0.449400000000     0.127500000000     0.175500000000     0          
O        O      0.651100000000     0.000000000000     0.131650000000     0          
O        O      0.750000000000     0.000000000000     0.125000000000     0          
O        O      0.449600000000     0.000000000000     0.129900000000     0          
O        O      0.500000000000     0.434150000000     0.250000000000     0          
O        O      0.427500000000     0.000000000000     0.250000000000     0          
O        O      0.500000000000     0.047750000000     0.090000000000     0          
T        Si     0.693000000000     0.143250000000     0.157750000000     0          
T        Si     0.401800000000     0.097350000000     0.188400000000     0          
T        Si     0.696300000000     0.000000000000     0.107800000000     0          
T        Si     0.400300000000     0.000000000000     0.150900000000     0          
T        Si     0.438800000000     0.442900000000     0.250000000000     0          
T        Si     0.500000000000     0.105650000000     0.091850000000     0          
O        O      0.347900000000     0.122950000000     0.318650000000     0          
O        O      0.250000000000     0.125000000000     0.334000000000     0          
O        O      0.308100000000     0.201250000000     0.339100000000     0          
O        O      0.598800000000     0.047100000000     0.329000000000     0          
O        O      0.586900000000     0.082900000000     0.278150000000     0          
O        O      0.550600000000     0.127500000000     0.324500000000     0          
O        O      0.348900000000     0.000000000000     0.368350000000     0          
O        O      0.250000000000     0.000000000000     0.375000000000     0          
O        O      0.550400000000     0.000000000000     0.370100000000     0          
O        O      0.500000000000     0.047750000000     0.410000000000     0          
T        Si     0.307000000000     0.143250000000     0.342250000000     0          
T        Si     0.598200000000     0.097350000000     0.311600000000     0          
T        Si     0.303700000000     0.000000000000     0.392200000000     0          
T        Si     0.599700000000     0.000000000000     0.349100000000     0          
T        Si     0.561200000000     0.442900000000     0.250000000000     0          
T        Si     0.500000000000     0.105650000000     0.408150000000     0          
T        Si     0.500000000000     0.000000000000     0.390200000000     0          
O        O      0.652100000000     0.377050000000     0.318650000000     0          
O        O      0.750000000000     0.375000000000     0.334000000000     0          
O        O      0.691900000000     0.298750000000     0.339100000000     0          
O        O      0.401200000000     0.452900000000     0.329000000000     0          
O        O      0.413100000000     0.417100000000     0.278150000000     0          
O        O      0.449400000000     0.372500000000     0.324500000000     0          
O        O      0.651100000000     0.000000000000     0.368350000000     0          
O        O      0.750000000000     0.000000000000     0.375000000000     0          
O        O      0.449600000000     0.000000000000     0.370100000000     0          
O        O      0.500000000000     0.452250000000     0.410000000000     0          
T        Si     0.693000000000     0.356750000000     0.342250000000     0          
T        Si     0.401800000000     0.402650000000     0.311600000000     0          
T        Si     0.696300000000     0.000000000000     0.392200000000     0          
T        Si     0.400300000000     0.000000000000     0.349100000000     0          
T        Si     0.438800000000     0.057100000000     0.250000000000     0          
T        Si     0.500000000000     0.394350000000     0.408150000000     0          
O        O      0.652100000000     0.122950000000     0.318650000000     0          
O        O      0.750000000000     0.125000000000     0.334000000000     0          
O        O      0.691900000000     0.201250000000     0.339100000000     0          
O        O      0.401200000000     0.047100000000     0.329000000000     0          
O        O      0.413100000000     0.082900000000     0.278150000000     0          
O        O      0.449400000000     0.127500000000     0.324500000000     0          
T        Si     0.693000000000     0.143250000000     0.342250000000     0          
T        Si     0.401800000000     0.097350000000     0.311600000000     0          
O        O      0.347900000000     0.377050000000     0.318650000000     0          
O        O      0.250000000000     0.375000000000     0.334000000000     0          
O        O      0.308100000000     0.298750000000     0.339100000000     0          
O        O      0.598800000000     0.452900000000     0.329000000000     0          
O        O      0.586900000000     0.417100000000     0.278150000000     0          
O        O      0.550600000000     0.372500000000     0.324500000000     0          
T        Si     0.307000000000     0.356750000000     0.342250000000     0          
T        Si     0.598200000000     0.402650000000     0.311600000000     0          
O        O      0.652100000000     0.377050000000     0.181350000000     0          
O        O      0.750000000000     0.375000000000     0.166000000000     0          
O        O      0.691900000000     0.298750000000     0.160900000000     0          
O        O      0.401200000000     0.452900000000     0.171000000000     0          
O        O      0.413100000000     0.417100000000     0.221850000000     0          
O        O      0.449400000000     0.372500000000     0.175500000000     0          
T        Si     0.693000000000     0.356750000000     0.157750000000     0          
T        Si     0.401800000000     0.402650000000     0.188400000000     0          
O        O      0.347900000000     0.122950000000     0.181350000000     0          
O        O      0.250000000000     0.125000000000     0.166000000000     0          
O        O      0.308100000000     0.201250000000     0.160900000000     0          
O        O      0.598800000000     0.047100000000     0.171000000000     0          
O        O      0.586900000000     0.082900000000     0.221850000000     0          
O        O      0.550600000000     0.127500000000     0.175500000000     0          
T        Si     0.307000000000     0.143250000000     0.157750000000     0          
T        Si     0.598200000000     0.097350000000     0.188400000000     0          
O        O      0.847900000000     0.127050000000     0.181350000000     0          
O        O      0.820100000000     0.125000000000     0.125000000000     0          
O        O      0.808100000000     0.048750000000     0.160900000000     0          
O        O      0.098800000000     0.202900000000     0.171000000000     0          
O        O      0.086900000000     0.167100000000     0.221850000000     0          
O        O      0.050600000000     0.122500000000     0.175500000000     0          
O        O      0.848900000000     0.250000000000     0.131650000000     0          
O        O      0.050400000000     0.250000000000     0.129900000000     0          
O        O      0.000000000000     0.315850000000     0.250000000000     0          
O        O      0.072500000000     0.250000000000     0.250000000000     0          
O        O      0.000000000000     0.202250000000     0.090000000000     0          
O        O      0.000000000000     0.125000000000     0.125000000000     0          
T        Si     0.807000000000     0.106750000000     0.157750000000     0          
T        Si     0.098200000000     0.152650000000     0.188400000000     0          
T        Si     0.803700000000     0.250000000000     0.107800000000     0          
T        Si     0.099700000000     0.250000000000     0.150900000000     0          
T        Si     0.061200000000     0.307100000000     0.250000000000     0          
T        Si     0.000000000000     0.144350000000     0.091850000000     0          
T        Si     0.000000000000     0.250000000000     0.109800000000     0          
O        O      0.152100000000     0.372950000000     0.181350000000     0          
O        O      0.179900000000     0.375000000000     0.125000000000     0          
O        O      0.191900000000     0.451250000000     0.160900000000     0          
O        O      0.901200000000     0.297100000000     0.171000000000     0          
O        O      0.913100000000     0.332900000000     0.221850000000     0          
O        O      0.949400000000     0.377500000000     0.175500000000     0          
O        O      0.151100000000     0.250000000000     0.131650000000     0          
O        O      0.949600000000     0.250000000000     0.129900000000     0          
O        O      0.000000000000     0.184150000000     0.250000000000     0          
O        O      0.927500000000     0.250000000000     0.250000000000     0          
O        O      0.000000000000     0.297750000000     0.090000000000     0          
O        O      0.000000000000     0.375000000000     0.125000000000     0          
T        Si     0.193000000000     0.393250000000     0.157750000000     0          
T        Si     0.901800000000     0.347350000000     0.188400000000     0          
T        Si     0.196300000000     0.250000000000     0.107800000000     0          
T        Si     0.900300000000     0.250000000000     0.150900000000     0          
T        Si     0.938800000000     0.192900000000     0.250000000000     0          
T        Si     0.000000000000     0.355650000000     0.091850000000     0          
O        O      0.847900000000     0.372950000000     0.318650000000     0          
O        O      0.820100000000     0.375000000000     0.375000000000     0          
O        O      0.808100000000     0.451250000000     0.339100000000     0          
O        O      0.098800000000     0.297100000000     0.329000000000     0          
O        O      0.086900000000     0.332900000000     0.278150000000     0          
O        O      0.050600000000     0.377500000000     0.324500000000     0          
O        O      0.848900000000     0.250000000000     0.368350000000     0          
O        O      0.050400000000     0.250000000000     0.370100000000     0          
O        O      0.000000000000     0.297750000000     0.410000000000     0          
O        O      0.000000000000     0.375000000000     0.375000000000     0          
T        Si     0.807000000000     0.393250000000     0.342250000000     0          
T        Si     0.098200000000     0.347350000000     0.311600000000     0          
T        Si     0.803700000000     0.250000000000     0.392200000000     0          
T        Si     0.099700000000     0.250000000000     0.349100000000     0          
T        Si     0.061200000000     0.192900000000     0.250000000000     0          
T        Si     0.000000000000     0.355650000000     0.408150000000     0          
T        Si     0.000000000000     0.250000000000     0.390200000000     0          
O        O      0.152100000000     0.127050000000     0.318650000000     0          
O        O      0.179900000000     0.125000000000     0.375000000000     0          
O        O      0.191900000000     0.048750000000     0.339100000000     0          
O        O      0.901200000000     0.202900000000     0.329000000000     0          
O        O      0.913100000000     0.167100000000     0.278150000000     0          
O        O      0.949400000000     0.122500000000     0.324500000000     0          
O        O      0.151100000000     0.250000000000     0.368350000000     0          
O        O      0.949600000000     0.250000000000     0.370100000000     0          
O        O      0.000000000000     0.202250000000     0.410000000000     0          
O        O      0.000000000000     0.125000000000     0.375000000000     0          
T        Si     0.193000000000     0.106750000000     0.342250000000     0          
T        Si     0.901800000000     0.152650000000     0.311600000000     0          
T        Si     0.196300000000     0.250000000000     0.392200000000     0          
T        Si     0.900300000000     0.250000000000     0.349100000000     0          
T        Si     0.938800000000     0.307100000000     0.250000000000     0          
T        Si     0.000000000000     0.144350000000     0.408150000000     0          
O        O      0.152100000000     0.372950000000     0.318650000000     0          
O        O      0.179900000000     0.375000000000     0.375000000000     0          
O        O      0.191900000000     0.451250000000     0.339100000000     0          
O        O      0.901200000000     0.297100000000     0.329000000000     0          
O        O      0.913100000000     0.332900000000     0.278150000000     0          
O        O      0.949400000000     0.377500000000     0.324500000000     0          
T        Si     0.193000000000     0.393250000000     0.342250000000     0          
T        Si     0.901800000000     0.347350000000     0.311600000000     0          
O        O      0.847900000000     0.127050000000     0.318650000000     0          
O        O      0.820100000000     0.125000000000     0.375000000000     0          
O        O      0.808100000000     0.048750000000     0.339100000000     0          
O        O      0.098800000000     0.202900000000     0.329000000000     0          
O        O      0.086900000000     0.167100000000     0.278150000000     0          
O        O      0.050600000000     0.122500000000     0.324500000000     0          
T        Si     0.807000000000     0.106750000000     0.342250000000     0          
T        Si     0.098200000000     0.152650000000     0.311600000000     0          
O        O      0.152100000000     0.127050000000     0.181350000000     0          
O        O      0.179900000000     0.125000000000     0.125000000000     0          
O        O      0.191900000000     0.048750000000     0.160900000000     0          
O        O      0.901200000000     0.202900000000     0.171000000000     0          
O        O      0.913100000000     0.167100000000     0.221850000000     0          
O        O      0.949400000000     0.122500000000     0.175500000000     0          
T        Si     0.193000000000     0.106750000000     0.157750000000     0          
T        Si     0.901800000000     0.152650000000     0.188400000000     0          
O        O      0.847900000000     0.372950000000     0.181350000000     0          
O        O      0.820100000000     0.375000000000     0.125000000000     0          
O        O      0.808100000000     0.451250000000     0.160900000000     0          
O        O      0.098800000000     0.297100000000     0.171000000000     0          
O        O      0.086900000000     0.332900000000     0.221850000000     0          
O        O      0.050600000000     0.377500000000     0.175500000000     0          
T        Si     0.807000000000     0.393250000000     0.157750000000     0          
T        Si     0.098200000000     0.347350000000     0.188400000000     0          
O        O      0.847900000000     0.377050000000     0.431350000000     0          
O        O      0.808100000000     0.298750000000     0.410900000000     0          
O        O      0.098800000000     0.452900000000     0.421000000000     0          
O        O      0.086900000000     0.417100000000     0.471850000000     0          
O        O      0.050600000000     0.372500000000     0.425500000000     0          
O        O      0.848900000000     0.000000000000     0.381650000000     0          
O        O      0.050400000000     0.000000000000     0.379900000000     0          
O        O      0.000000000000     0.065850000000     0.000000000000     0          
O        O      0.072500000000     0.000000000000     0.000000000000     0          
O        O      0.000000000000     0.452250000000     0.340000000000     0          
T        Si     0.807000000000     0.356750000000     0.407750000000     0          
T        Si     0.098200000000     0.402650000000     0.438400000000     0          
T        Si     0.803700000000     0.000000000000     0.357800000000     0          
T        Si     0.099700000000     0.000000000000     0.400900000000     0          
T        Si     0.061200000000     0.057100000000     0.000000000000     0          
T        Si     0.000000000000     0.394350000000     0.341850000000     0          
T        Si     0.000000000000     0.000000000000     0.359800000000     0          
O        O      0.152100000000     0.122950000000     0.431350000000     0          
O        O      0.191900000000     0.201250000000     0.410900000000     0          
O        O      0.901200000000     0.047100000000     0.421000000000     0          
O        O      0.913100000000     0.082900000000     0.471850000000     0          
O        O      0.949400000000     0.127500000000     0.425500000000     0          
O        O      0.151100000000     0.000000000000     0.381650000000     0          
O        O      0.949600000000     0.000000000000     0.379900000000     0          
O        O      0.000000000000     0.434150000000     0.000000000000     0          
O        O      0.927500000000     0.000000000000     0.000000000000     0          
O        O      0.000000000000     0.047750000000     0.340000000000     0          
T        Si     0.193000000000     0.143250000000     0.407750000000     0          
T        Si     0.901800000000     0.097350000000     0.438400000000     0          
T        Si     0.196300000000     0.000000000000     0.357800000000     0          
T        Si     0.900300000000     0.000000000000     0.400900000000     0          
T        Si     0.938800000000     0.442900000000     0.000000000000     0          
T        Si     0.000000000000     0.105650000000     0.341850000000     0          
O        O      0.847900000000     0.122950000000     0.068650000000     0          
O        O      0.808100000000     0.201250000000     0.089100000000     0          
O        O      0.098800000000     0.047100000000     0.079000000000     0          
O        O      0.086900000000     0.082900000000     0.028150000000     0          
O        O      0.050600000000     0.127500000000     0.074500000000     0          
O        O      0.848900000000     0.000000000000     0.118350000000     0          
O        O      0.050400000000     0.000000000000     0.120100000000     0          
O        O      0.000000000000     0.047750000000     0.160000000000     0          
T        Si     0.807000000000     0.143250000000     0.092250000000     0          
T        Si     0.098200000000     0.097350000000     0.061600000000     0          
T        Si     0.803700000000     0.000000000000     0.142200000000     0          
T        Si     0.099700000000     0.000000000000     0.099100000000     0          
T        Si     0.061200000000     0.442900000000     0.000000000000     0          
T        Si     0.000000000000     0.105650000000     0.158150000000     0          
T        Si     0.000000000000     0.000000000000     0.140200000000     0          
O        O      0.152100000000     0.377050000000     0.068650000000     0          
O        O      0.191900000000     0.298750000000     0.089100000000     0          
O        O      0.901200000000     0.452900000000     0.079000000000     0          
O        O      0.913100000000     0.417100000000     0.028150000000     0          
O        O      0.949400000000     0.372500000000     0.074500000000     0          
O        O      0.151100000000     0.000000000000     0.118350000000     0          
O        O      0.949600000000     0.000000000000     0.120100000000     0          
O        O      0.000000000000     0.452250000000     0.160000000000     0          
T        Si     0.193000000000     0.356750000000     0.092250000000     0          
T        Si     0.901800000000     0.402650000000     0.061600000000     0          
T        Si     0.196300000000     0.000000000000     0.142200000000     0          
T        Si     0.900300000000     0.000000000000     0.099100000000     0          
T        Si     0.938800000000     0.057100000000     0.000000000000     0          
T        Si     0.000000000000     0.394350000000     0.158150000000     0          
O        O      0.152100000000     0.122950000000     0.068650000000     0          
O        O      0.191900000000     0.201250000000     0.089100000000     0          
O        O      0.901200000000     0.047100000000     0.079000000000     0          
O        O      0.913100000000     0.082900000000     0.028150000000     0          
O        O      0.949400000000     0.127500000000     0.074500000000     0          
T        Si     0.193000000000     0.143250000000     0.092250000000     0          
T        Si     0.901800000000     0.097350000000     0.061600000000     0          
O        O      0.847900000000     0.377050000000     0.068650000000     0          
O        O      0.808100000000     0.298750000000     0.089100000000     0          
O        O      0.098800000000     0.452900000000     0.079000000000     0          
O        O      0.086900000000     0.417100000000     0.028150000000     0          
O        O      0.050600000000     0.372500000000     0.074500000000     0          
T        Si     0.807000000000     0.356750000000     0.092250000000     0          
T        Si     0.098200000000     0.402650000000     0.061600000000     0          
O        O      0.152100000000     0.377050000000     0.431350000000     0          
O        O      0.191900000000     0.298750000000     0.410900000000     0          
O        O      0.901200000000     0.452900000000     0.421000000000     0          
O        O      0.913100000000     0.417100000000     0.471850000000     0          
O        O      0.949400000000     0.372500000000     0.425500000000     0          
T        Si     0.193000000000     0.356750000000     0.407750000000     0          
T        Si     0.901800000000     0.402650000000     0.438400000000     0          
O        O      0.847900000000     0.122950000000     0.431350000000     0          
O        O      0.808100000000     0.201250000000     0.410900000000     0          
O        O      0.098800000000     0.047100000000     0.421000000000     0          
O        O      0.086900000000     0.082900000000     0.471850000000     0          
O        O      0.050600000000     0.127500000000     0.425500000000     0          
T        Si     0.807000000000     0.143250000000     0.407750000000     0          
T        Si     0.098200000000     0.097350000000     0.438400000000     0          
O        O      0.347900000000     0.127050000000     0.931350000000     0          
O        O      0.320100000000     0.125000000000     0.875000000000     0          
O        O      0.250000000000     0.125000000000     0.916000000000     0          
O        O      0.308100000000     0.048750000000     0.910900000000     0          
O        O      0.598800000000     0.202900000000     0.921000000000     0          
O        O      0.586900000000     0.167100000000     0.971850000000     0          
O        O      0.550600000000     0.122500000000     0.925500000000     0          
O        O      0.348900000000     0.250000000000     0.881650000000     0          
O        O      0.250000000000     0.250000000000     0.875000000000     0          
O        O      0.550400000000     0.250000000000     0.879900000000     0          
O        O      0.500000000000     0.315850000000     0.500000000000     0          
O        O      0.572500000000     0.250000000000     0.500000000000     0          
O        O      0.500000000000     0.202250000000     0.840000000000     0          
O        O      0.500000000000     0.125000000000     0.875000000000     0          
T        Si     0.307000000000     0.106750000000     0.907750000000     0          
T        Si     0.598200000000     0.152650000000     0.938400000000     0          
T        Si     0.303700000000     0.250000000000     0.857800000000     0          
T        Si     0.599700000000     0.250000000000     0.900900000000     0          
T        Si     0.561200000000     0.307100000000     0.500000000000     0          
T        Si     0.500000000000     0.144350000000     0.841850000000     0          
T        Si     0.500000000000     0.250000000000     0.859800000000     0          
O        O      0.652100000000     0.372950000000     0.931350000000     0          
O        O      0.679900000000     0.375000000000     0.875000000000     0          
O        O      0.750000000000     0.375000000000     0.916000000000     0          
O        O      0.691900000000     0.451250000000     0.910900000000     0          
O        O      0.401200000000     0.297100000000     0.921000000000     0          
O        O      0.413100000000     0.332900000000     0.971850000000     0          
O        O      0.449400000000     0.377500000000     0.925500000000     0          
O        O      0.651100000000     0.250000000000     0.881650000000     0          
O        O      0.750000000000     0.250000000000     0.875000000000     0          
O        O      0.449600000000     0.250000000000     0.879900000000     0          
O        O      0.500000000000     0.184150000000     0.500000000000     0          
O        O      0.427500000000     0.250000000000     0.500000000000     0          
O        O      0.500000000000     0.297750000000     0.840000000000     0          
O        O      0.500000000000     0.375000000000     0.875000000000     0          
T        Si     0.693000000000     0.393250000000     0.907750000000     0          
T        Si     0.401800000000     0.347350000000     0.938400000000     0          
T        Si     0.696300000000     0.250000000000     0.857800000000     0          
T        Si     0.400300000000     0.250000000000     0.900900000000     0          
T        Si     0.438800000000     0.192900000000     0.500000000000     0          
T        Si     0.500000000000     0.355650000000     0.841850000000     0          
O        O      0.347900000000     0.372950000000     0.568650000000     0          
O        O      0.320100000000     0.375000000000     0.625000000000     0          
O        O      0.250000000000     0.375000000000     0.584000000000     0          
O        O      0.308100000000     0.451250000000     0.589100000000     0          
O        O      0.598800000000     0.297100000000     0.579000000000     0          
O        O      0.586900000000     0.332900000000     0.528150000000     0          
O        O      0.550600000000     0.377500000000     0.574500000000     0          
O        O      0.348900000000     0.250000000000     0.618350000000     0          
O        O      0.250000000000     0.250000000000     0.625000000000     0          
O        O      0.550400000000     0.250000000000     0.620100000000     0          
O        O      0.500000000000     0.297750000000     0.660000000000     0          
O        O      0.500000000000     0.375000000000     0.625000000000     0          
T        Si     0.307000000000     0.393250000000     0.592250000000     0          
T        Si     0.598200000000     0.347350000000     0.561600000000     0          
T        Si     0.303700000000     0.250000000000     0.642200000000     0          
T        Si     0.599700000000     0.250000000000     0.599100000000     0          
T        Si     0.561200000000     0.192900000000     0.500000000000     0          
T        Si     0.500000000000     0.355650000000     0.658150000000     0          
T        Si     0.500000000000     0.250000000000     0.640200000000     0          
O        O      0.652100000000     0.127050000000     0.568650000000     0          
O        O      0.679900000000     0.125000000000     0.625000000000     0          
O        O      0.750000000000     0.125000000000     0.584000000000     0          
O        O      0.691900000000     0.048750000000     0.589100000000     0          
O        O      0.401200000000     0.202900000000     0.579000000000     0          
O        O      0.413100000000     0.167100000000     0.528150000000     0          
O        O      0.449400000000     0.122500000000     0.574500000000     0          
O        O      0.651100000000     0.250000000000     0.618350000000     0          
O        O      0.750000000000     0.250000000000     0.625000000000     0          
O        O      0.449600000000     0.250000000000     0.620100000000     0          
O        O      0.500000000000     0.202250000000     0.660000000000     0          
O        O      0.500000000000     0.125000000000     0.625000000000     0          
T        Si     0.693000000000     0.106750000000     0.592250000000     0          
T        Si     0.401800000000     0.152650000000     0.561600000000     0          
T        Si     0.696300000000     0.250000000000     0.642200000000     0          
T        Si     0.400300000000     0.250000000000     0.599100000000     0          
T        Si     0.438800000000     0.307100000000     0.500000000000     0          
T        Si     0.500000000000     0.144350000000     0.658150000000     0          
O        O      0.652100000000     0.372950000000     0.568650000000     0          
O        O      0.679900000000     0.375000000000     0.625000000000     0          
O        O      0.750000000000     0.375000000000     0.584000000000     0          
O        O      0.691900000000     0.451250000000     0.589100000000     0          
O        O      0.401200000000     0.297100000000     0.579000000000     0          
O        O      0.413100000000     0.332900000000     0.528150000000     0          
O        O      0.449400000000     0.377500000000     0.574500000000     0          
T        Si     0.693000000000     0.393250000000     0.592250000000     0          
T        Si     0.401800000000     0.347350000000     0.561600000000     0          
O        O      0.347900000000     0.127050000000     0.568650000000     0          
O        O      0.320100000000     0.125000000000     0.625000000000     0          
O        O      0.250000000000     0.125000000000     0.584000000000     0          
O        O      0.308100000000     0.048750000000     0.589100000000     0          
O        O      0.598800000000     0.202900000000     0.579000000000     0          
O        O      0.586900000000     0.167100000000     0.528150000000     0          
O        O      0.550600000000     0.122500000000     0.574500000000     0          
T        Si     0.307000000000     0.106750000000     0.592250000000     0          
T        Si     0.598200000000     0.152650000000     0.561600000000     0          
O        O      0.652100000000     0.127050000000     0.931350000000     0          
O        O      0.679900000000     0.125000000000     0.875000000000     0          
O        O      0.750000000000     0.125000000000     0.916000000000     0          
O        O      0.691900000000     0.048750000000     0.910900000000     0          
O        O      0.401200000000     0.202900000000     0.921000000000     0          
O        O      0.413100000000     0.167100000000     0.971850000000     0          
O        O      0.449400000000     0.122500000000     0.925500000000     0          
T        Si     0.693000000000     0.106750000000     0.907750000000     0          
T        Si     0.401800000000     0.152650000000     0.938400000000     0          
O        O      0.347900000000     0.372950000000     0.931350000000     0          
O        O      0.320100000000     0.375000000000     0.875000000000     0          
O        O      0.250000000000     0.375000000000     0.916000000000     0          
O        O      0.308100000000     0.451250000000     0.910900000000     0          
O        O      0.598800000000     0.297100000000     0.921000000000     0          
O        O      0.586900000000     0.332900000000     0.971850000000     0          
O        O      0.550600000000     0.377500000000     0.925500000000     0          
T        Si     0.307000000000     0.393250000000     0.907750000000     0          
T        Si     0.598200000000     0.347350000000     0.938400000000     0          
O        O      0.347900000000     0.377050000000     0.681350000000     0          
O        O      0.250000000000     0.375000000000     0.666000000000     0          
O        O      0.308100000000     0.298750000000     0.660900000000     0          
O        O      0.598800000000     0.452900000000     0.671000000000     0          
O        O      0.586900000000     0.417100000000     0.721850000000     0          
O        O      0.550600000000     0.372500000000     0.675500000000     0          
O        O      0.348900000000     0.000000000000     0.631650000000     0          
O        O      0.250000000000     0.000000000000     0.625000000000     0          
O        O      0.550400000000     0.000000000000     0.629900000000     0          
O        O      0.500000000000     0.065850000000     0.750000000000     0          
O        O      0.572500000000     0.000000000000     0.750000000000     0          
O        O      0.500000000000     0.452250000000     0.590000000000     0          
T        Si     0.307000000000     0.356750000000     0.657750000000     0          
T        Si     0.598200000000     0.402650000000     0.688400000000     0          
T        Si     0.303700000000     0.000000000000     0.607800000000     0          
T        Si     0.599700000000     0.000000000000     0.650900000000     0          
T        Si     0.561200000000     0.057100000000     0.750000000000     0          
T        Si     0.500000000000     0.394350000000     0.591850000000     0          
T        Si     0.500000000000     0.000000000000     0.609800000000     0          
O        O      0.652100000000     0.122950000000     0.681350000000     0          
O        O      0.750000000000     0.125000000000     0.666000000000     0          
O        O      0.691900000000     0.201250000000     0.660900000000     0          
O        O      0.401200000000     0.047100000000     0.671000000000     0          
O        O      0.413100000000     0.082900000000     0.721850000000     0          
O        O      0.449400000000     0.127500000000     0.675500000000     0          
O        O      0.651100000000     0.000000000000     0.631650000000     0          
O        O      0.750000000000     0.000000000000     0.625000000000     0          
O        O      0.449600000000     0.000000000000     0.629900000000     0          
O        O      0.500000000000     0.434150000000     0.750000000000     0          
O        O      0.427500000000     0.000000000000     0.750000000000     0          
O        O      0.500000000000     0.047750000000     0.590000000000     0          
T        Si     0.693000000000     0.143250000000     0.657750000000     0          
T        Si     0.401800000000     0.097350000000     0.688400000000     0          
T        Si     0.696300000000     0.000000000000     0.607800000000     0          
T        Si     0.400300000000     0.000000000000     0.650900000000     0          
T        Si     0.438800000000     0.442900000000     0.750000000000     0          
T        Si     0.500000000000     0.105650000000     0.591850000000     0          
O        O      0.347900000000     0.122950000000     0.818650000000     0          
O        O      0.250000000000     0.125000000000     0.834000000000     0          
O        O      0.308100000000     0.201250000000     0.839100000000     0          
O        O      0.598800000000     0.047100000000     0.829000000000     0          
O        O      0.586900000000     0.082900000000     0.778150000000     0          
O        O      0.550600000000     0.127500000000     0.824500000000     0          
O        O      0.348900000000     0.000000000000     0.868350000000     0          
O        O      0.250000000000     0.000000000000     0.875000000000     0          
O        O      0.550400000000     0.000000000000     0.870100000000     0          
O        O      0.500000000000     0.047750000000     0.910000000000     0          
T        Si     0.307000000000     0.143250000000     0.842250000000     0          
T        Si     0.598200000000     0.097350000000     0.811600000000     0          
T        Si     0.303700000000     0.000000000000     0.892200000000     0          
T        Si     0.599700000000     0.000000000000     0.849100000000     0          
T        Si     0.561200000000     0.442900000000     0.750000000000     0          
T        Si     0.500000000000     0.105650000000     0.908150000000     0          
T        Si     0.500000000000     0.000000000000     0.890200000000     0          
O        O      0.652100000000     0.377050000000     0.818650000000     0          
O        O      0.750000000000     0.375000000000     0.834000000000     0          
O        O      0.691900000000     0.298750000000     0.839100000000     0          
O        O      0.401200000000     0.452900000000     0.829000000000     0          
O        O      0.413100000000     0.417100000000     0.778150000000     0          
O        O      0.449400000000     0.372500000000     0.824500000000     0          
O        O      0.651100000000     0.000000000000     0.868350000000     0          
O        O      0.750000000000     0.000000000000     0.875000000000     0          
O        O      0.449600000000     0.000000000000     0.870100000000     0          
O        O      0.500000000000     0.452250000000     0.910000000000     0          
T        Si     0.693000000000     0.356750000000     0.842250000000     0          
T        Si     0.401800000000     0.402650000000     0.811600000000     0          
T        Si     0.696300000000     0.000000000000     0.892200000000     0          
T        Si     0.400300000000     0.000000000000     0.849100000000     0          
T        Si     0.438800000000     0.057100000000     0.750000000000     0          
T        Si     0.500000000000     0.394350000000     0.908150000000     0          
O        O      0.652100000000     0.122950000000     0.818650000000     0          
O        O      0.750000000000     0.125000000000     0.834000000000     0          
O        O      0.691900000000     0.201250000000     0.839100000000     0          
O        O      0.401200000000     0.047100000000     0.829000000000     0          
O        O      0.413100000000     0.082900000000     0.778150000000     0          
O        O      0.449400000000     0.127500000000     0.824500000000     0          
T        Si     0.693000000000     0.143250000000     0.842250000000     0          
T        Si     0.401800000000     0.097350000000     0.811600000000     0          
O        O      0.347900000000     0.377050000000     0.818650000000     0          
O        O      0.250000000000     0.375000000000     0.834000000000     0          
O        O      0.308100000000     0.298750000000     0.839100000000     0          
O        O      0.598800000000     0.452900000000     0.829000000000     0          
O        O      0.586900000000     0.417100000000     0.778150000000     0          
O        O      0.550600000000     0.372500000000     0.824500000000     0          
T        Si     0.307000000000     0.356750000000     0.842250000000     0          
T        Si     0.598200000000     0.402650000000     0.811600000000     0          
O        O      0.652100000000     0.377050000000     0.681350000000     0          
O        O      0.750000000000     0.375000000000     0.666000000000     0          
O        O      0.691900000000     0.298750000000     0.660900000000     0          
O        O      0.401200000000     0.452900000000     0.671000000000     0          
O        O      0.413100000000     0.417100000000     0.721850000000     0          
O        O      0.449400000000     0.372500000000     0.675500000000     0          
T        Si     0.693000000000     0.356750000000     0.657750000000     0          
T        Si     0.401800000000     0.402650000000     0.688400000000     0          
O        O      0.347900000000     0.122950000000     0.681350000000     0          
O        O      0.250000000000     0.125000000000     0.666000000000     0          
O        O      0.308100000000     0.201250000000     0.660900000000     0          
O        O      0.598800000000     0.047100000000     0.671000000000     0          
O        O      0.586900000000     0.082900000000     0.721850000000     0          
O        O      0.550600000000     0.127500000000     0.675500000000     0          
T        Si     0.307000000000     0.143250000000     0.657750000000     0          
T        Si     0.598200000000     0.097350000000     0.688400000000     0          
O        O      0.847900000000     0.127050000000     0.681350000000     0          
O        O      0.820100000000     0.125000000000     0.625000000000     0          
O        O      0.808100000000     0.048750000000     0.660900000000     0          
O        O      0.098800000000     0.202900000000     0.671000000000     0          
O        O      0.086900000000     0.167100000000     0.721850000000     0          
O        O      0.050600000000     0.122500000000     0.675500000000     0          
O        O      0.848900000000     0.250000000000     0.631650000000     0          
O        O      0.050400000000     0.250000000000     0.629900000000     0          
O        O      0.000000000000     0.315850000000     0.750000000000     0          
O        O      0.072500000000     0.250000000000     0.750000000000     0          
O        O      0.000000000000     0.202250000000     0.590000000000     0          
O        O      0.000000000000     0.125000000000     0.625000000000     0          
T        Si     0.807000000000     0.106750000000     0.657750000000     0          
T        Si     0.098200000000     0.152650000000     0.688400000000     0          
T        Si     0.803700000000     0.250000000000     0.607800000000     0          
T        Si     0.099700000000     0.250000000000     0.650900000000     0          
T        Si     0.061200000000     0.307100000000     0.750000000000     0          
T        Si     0.000000000000     0.144350000000     0.591850000000     0          
T        Si     0.000000000000     0.250000000000     0.609800000000     0          
O        O      0.152100000000     0.372950000000     0.681350000000     0          
O        O      0.179900000000     0.375000000000     0.625000000000     0          
O        O      0.191900000000     0.451250000000     0.660900000000     0          
O        O      0.901200000000     0.297100000000     0.671000000000     0          
O        O      0.913100000000     0.332900000000     0.721850000000     0          
O        O      0.949400000000     0.377500000000     0.675500000000     0          
O        O      0.151100000000     0.250000000000     0.631650000000     0          
O        O      0.949600000000     0.250000000000     0.629900000000     0          
O        O      0.000000000000     0.184150000000     0.750000000000     0          
O        O      0.927500000000     0.250000000000     0.750000000000     0          
O        O      0.000000000000     0.297750000000     0.590000000000     0          
O        O      0.000000000000     0.375000000000     0.625000000000     0          
T        Si     0.193000000000     0.393250000000     0.657750000000     0          
T        Si     0.901800000000     0.347350000000     0.688400000000     0          
T        Si     0.196300000000     0.250000000000     0.607800000000     0          
T        Si     0.900300000000     0.250000000000     0.650900000000     0          
T        Si     0.938800000000     0.192900000000     0.750000000000     0          
T        Si     0.000000000000     0.355650000000     0.591850000000     0          
O        O      0.847900000000     0.372950000000     0.818650000000     0          
O        O      0.820100000000     0.375000000000     0.875000000000     0          
O        O      0.808100000000     0.451250000000     0.839100000000     0          
O        O      0.098800000000     0.297100000000     0.829000000000     0          
O        O      0.086900000000     0.332900000000     0.778150000000     0          
O        O      0.050600000000     0.377500000000     0.824500000000     0          
O        O      0.848900000000     0.250000000000     0.868350000000     0          
O        O      0.050400000000     0.250000000000     0.870100000000     0          
O        O      0.000000000000     0.297750000000     0.910000000000     0          
O        O      0.000000000000     0.375000000000     0.875000000000     0          
T        Si     0.807000000000     0.393250000000     0.842250000000     0          
T        Si     0.098200000000     0.347350000000     0.811600000000     0          
T        Si     0.803700000000     0.250000000000     0.892200000000     0          
T        Si     0.099700000000     0.250000000000     0.849100000000     0          
T        Si     0.061200000000     0.192900000000     0.750000000000     0          
T        Si     0.000000000000     0.355650000000     0.908150000000     0          
T        Si     0.000000000000     0.250000000000     0.890200000000     0          
O        O      0.152100000000     0.127050000000     0.818650000000     0          
O        O      0.179900000000     0.125000000000     0.875000000000     0          
O        O      0.191900000000     0.048750000000     0.839100000000     0          
O        O      0.901200000000     0.202900000000     0.829000000000     0          
O        O      0.913100000000     0.167100000000     0.778150000000     0          
O        O      0.949400000000     0.122500000000     0.824500000000     0          
O        O      0.151100000000     0.250000000000     0.868350000000     0          
O        O      0.949600000000     0.250000000000     0.870100000000     0          
O        O      0.000000000000     0.202250000000     0.910000000000     0          
O        O      0.000000000000     0.125000000000     0.875000000000     0          
T        Si     0.193000000000     0.106750000000     0.842250000000     0          
T        Si     0.901800000000     0.152650000000     0.811600000000     0          
T        Si     0.196300000000     0.250000000000     0.892200000000     0          
T        Si     0.900300000000     0.250000000000     0.849100000000     0          
T        Si     0.938800000000     0.307100000000     0.750000000000     0          
T        Si     0.000000000000     0.144350000000     0.908150000000     0          
O        O      0.152100000000     0.372950000000     0.818650000000     0          
O        O      0.179900000000     0.375000000000     0.875000000000     0          
O        O      0.191900000000     0.451250000000     0.839100000000     0          
O        O      0.901200000000     0.297100000000     0.829000000000     0          
O        O      0.913100000000     0.332900000000     0.778150000000     0          
O        O      0.949400000000     0.377500000000     0.824500000000     0          
T        Si     0.193000000000     0.393250000000     0.842250000000     0          
T        Si     0.901800000000     0.347350000000     0.811600000000     0          
O        O      0.847900000000     0.127050000000     0.818650000000     0          
O        O      0.820100000000     0.125000000000     0.875000000000     0          
O        O      0.808100000000     0.048750000000     0.839100000000     0          
O        O      0.098800000000     0.202900000000     0.829000000000     0          
O        O      0.086900000000     0.167100000000     0.778150000000     0          
O        O      0.050600000000     0.122500000000     0.824500000000     0          
T        Si     0.807000000000     0.106750000000     0.842250000000     0          
T        Si     0.098200000000     0.152650000000     0.811600000000     0          
O        O      0.152100000000     0.127050000000     0.681350000000     0          
O        O      0.179900000000     0.125000000000     0.625000000000     0          
O        O      0.191900000000     0.048750000000     0.660900000000     0          
O        O      0.901200000000     0.202900000000     0.671000000000     0          
O        O      0.913100000000     0.167100000000     0.721850000000     0          
O        O      0.949400000000     0.122500000000     0.675500000000     0          
T        Si     0.193000000000     0.106750000000     0.657750000000     0          
T        Si     0.901800000000     0.152650000000     0.688400000000     0          
O        O      0.847900000000     0.372950000000     0.681350000000     0          
O        O      0.820100000000     0.375000000000     0.625000000000     0          
O        O      0.808100000000     0.451250000000     0.660900000000     0          
O        O      0.098800000000     0.297100000000     0.671000000000     0          
O        O      0.086900000000     0.332900000000     0.721850000000     0          
O        O      0.050600000000     0.377500000000     0.675500000000     0          
T        Si     0.807000000000     0.393250000000     0.657750000000     0          
T        Si     0.098200000000     0.347350000000     0.688400000000     0          
O        O      0.847900000000     0.377050000000     0.931350000000     0          
O        O      0.808100000000     0.298750000000     0.910900000000     0          
O        O      0.098800000000     0.452900000000     0.921000000000     0          
O        O      0.086900000000     0.417100000000     0.971850000000     0          
O        O      0.050600000000     0.372500000000     0.925500000000     0          
O        O      0.848900000000     0.000000000000     0.881650000000     0          
O        O      0.050400000000     0.000000000000     0.879900000000     0          
O        O      0.000000000000     0.065850000000     0.500000000000     0          
O        O      0.072500000000     0.000000000000     0.500000000000     0          
O        O      0.000000000000     0.452250000000     0.840000000000     0          
T        Si     0.807000000000     0.356750000000     0.907750000000     0          
T        Si     0.098200000000     0.402650000000     0.938400000000     0          
T        Si     0.803700000000     0.000000000000     0.857800000000     0          
T        Si     0.099700000000     0.000000000000     0.900900000000     0          
T        Si     0.061200000000     0.057100000000     0.500000000000     0          
T        Si     0.000000000000     0.394350000000     0.841850000000     0          
T        Si     0.000000000000     0.000000000000     0.859800000000     0          
O        O      0.152100000000     0.122950000000     0.931350000000     0          
O        O      0.191900000000     0.201250000000     0.910900000000     0          
O        O      0.901200000000     0.047100000000     0.921000000000     0          
O        O      0.913100000000     0.082900000000     0.971850000000     0          
O        O      0.949400000000     0.127500000000     0.925500000000     0          
O        O      0.151100000000     0.000000000000     0.881650000000     0          
O        O      0.949600000000     0.000000000000     0.879900000000     0          
O        O      0.000000000000     0.434150000000     0.500000000000     0          
O        O      0.927500000000     0.000000000000     0.500000000000     0          
O        O      0.000000000000     0.047750000000     0.840000000000     0          
T        Si     0.193000000000     0.143250000000     0.907750000000     0          
T        Si     0.901800000000     0.097350000000     0.938400000000     0          
T        Si     0.196300000000     0.000000000000     0.857800000000     0          
T        Si     0.900300000000     0.000000000000     0.900900000000     0          
T        Si     0.938800000000     0.442900000000     0.500000000000     0          
T        Si     0.000000000000     0.105650000000     0.841850000000     0          
O        O      0.847900000000     0.122950000000     0.568650000000     0          
O        O      0.808100000000     0.201250000000     0.589100000000     0          
O        O      0.098800000000     0.047100000000     0.579000000000     0          
O        O      0.086900000000     0.082900000000     0.528150000000     0          
O        O      0.050600000000     0.127500000000     0.574500000000     0          
O        O      0.848900000000     0.000000000000     0.618350000000     0          
O        O      0.050400000000     0.000000000000     0.620100000000     0          
O        O      0.000000000000     0.047750000000     0.660000000000     0          
T        Si     0.807000000000     0.143250000000     0.592250000000     0          
T        Si     0.098200000000     0.097350000000     0.561600000000     0          
T        Si     0.803700000000     0.000000000000     0.642200000000     0          
T        Si     0.099700000000     0.000000000000     0.599100000000     0          
T        Si     0.061200000000     0.442900000000     0.500000000000     0          
T        Si     0.000000000000     0.105650000000     0.658150000000     0          
T        Si     0.000000000000     0.000000000000     0.640200000000     0          
O        O      0.152100000000     0.377050000000     0.568650000000     0          
O        O      0.191900000000     0.298750000000     0.589100000000     0          
O        O      0.901200000000     0.452900000000     0.579000000000     0          
O        O      0.913100000000     0.417100000000     0.528150000000     0          
O        O      0.949400000000     0.372500000000     0.574500000000     0          
O        O      0.151100000000     0.000000000000     0.618350000000     0          
O        O      0.949600000000     0.000000000000     0.620100000000     0          
O        O      0.000000000000     0.452250000000     0.660000000000     0          
T        Si     0.193000000000     0.356750000000     0.592250000000     0          
T        Si     0.901800000000     0.402650000000     0.561600000000     0          
T        Si     0.196300000000     0.000000000000     0.642200000000     0          
T        Si     0.900300000000     0.000000000000     0.599100000000     0          
T        Si     0.938800000000     0.057100000000     0.500000000000     0          
T        Si     0.000000000000     0.394350000000     0.658150000000     0          
O        O      0.152100000000     0.122950000000     0.568650000000     0          
O        O      0.191900000000     0.201250000000     0.589100000000     0          
O        O      0.901200000000     0.047100000000     0.579000000000     0          
O        O      0.913100000000     0.082900000000     0.528150000000     0          
O        O      0.949400000000     0.127500000000     0.574500000000     0          
T        Si     0.193000000000     0.143250000000     0.592250000000     0          
T        Si     0.901800000000     0.097350000000     0.561600000000     0          
O        O      0.847900000000     0.377050000000     0.568650000000     0          
O        O      0.808100000000     0.298750000000     0.589100000000     0          
O        O      0.098800000000     0.452900000000     0.579000000000     0          
O        O      0.086900000000     0.417100000000     0.528150000000     0          
O        O      0.050600000000     0.372500000000     0.574500000000     0          
T        Si     0.807000000000     0.356750000000     0.592250000000     0          
T        Si     0.098200000000     0.402650000000     0.561600000000     0          
O        O      0.152100000000     0.377050000000     0.931350000000     0          
O        O      0.191900000000     0.298750000000     0.910900000000     0          
O        O      0.901200000000     0.452900000000     0.921000000000     0          
O        O      0.913100000000     0.417100000000     0.971850000000     0          
O        O      0.949400000000     0.372500000000     0.925500000000     0          
T        Si     0.193000000000     0.356750000000     0.907750000000     0          
T        Si     0.901800000000     0.402650000000     0.938400000000     0          
O        O      0.847900000000     0.122950000000     0.931350000000     0          
O        O      0.808100000000     0.201250000000     0.910900000000     0          
O        O      0.098800000000     0.047100000000     0.921000000000     0          
O        O      0.086900000000     0.082900000000     0.971850000000     0          
O        O      0.050600000000     0.127500000000     0.925500000000     0          
T        Si     0.807000000000     0.143250000000     0.907750000000     0          
T        Si     0.098200000000     0.097350000000     0.938400000000     0          
O        O      0.347900000000     0.627050000000     0.431350000000     0          
O        O      0.320100000000     0.625000000000     0.375000000000     0          
O        O      0.250000000000     0.625000000000     0.416000000000     0          
O        O      0.308100000000     0.548750000000     0.410900000000     0          
O        O      0.598800000000     0.702900000000     0.421000000000     0          
O        O      0.586900000000     0.667100000000     0.471850000000     0          
O        O      0.550600000000     0.622500000000     0.425500000000     0          
O        O      0.348900000000     0.750000000000     0.381650000000     0          
O        O      0.250000000000     0.750000000000     0.375000000000     0          
O        O      0.550400000000     0.750000000000     0.379900000000     0          
O        O      0.500000000000     0.815850000000     0.000000000000     0          
O        O      0.572500000000     0.750000000000     0.000000000000     0          
O        O      0.500000000000     0.702250000000     0.340000000000     0          
O        O      0.500000000000     0.625000000000     0.375000000000     0          
T        Si     0.307000000000     0.606750000000     0.407750000000     0          
T        Si     0.598200000000     0.652650000000     0.438400000000     0          
T        Si     0.303700000000     0.750000000000     0.357800000000     0          
T        Si     0.599700000000     0.750000000000     0.400900000000     0          
T        Si     0.561200000000     0.807100000000     0.000000000000     0          
T        Si     0.500000000000     0.644350000000     0.341850000000     0          
T        Si     0.500000000000     0.750000000000     0.359800000000     0          
O        O      0.652100000000     0.872950000000     0.431350000000     0          
O        O      0.679900000000     0.875000000000     0.375000000000     0          
O        O      0.750000000000     0.875000000000     0.416000000000     0          
O        O      0.691900000000     0.951250000000     0.410900000000     0          
O        O      0.401200000000     0.797100000000     0.421000000000     0          
O        O      0.413100000000     0.832900000000     0.471850000000     0          
O        O      0.449400000000     0.877500000000     0.425500000000     0          
O        O      0.651100000000     0.750000000000     0.381650000000     0          
O        O      0.750000000000     0.750000000000     0.375000000000     0          
O        O      0.449600000000     0.750000000000     0.379900000000     0          
O        O      0.500000000000     0.684150000000     0.000000000000     0          
O        O      0.427500000000     0.750000000000     0.000000000000     0          
O        O      0.500000000000     0.797750000000     0.340000000000     0          
O        O      0.500000000000     0.875000000000     0.375000000000     0          
T        Si     0.693000000000     0.893250000000     0.407750000000     0          
T        Si     0.401800000000     0.847350000000     0.438400000000     0          
T        Si     0.696300000000     0.750000000000     0.357800000000     0          
T        Si     0.400300000000     0.750000000000     0.400900000000     0          
T        Si     0.438800000000     0.692900000000     0.000000000000     0          
T        Si     0.500000000000     0.855650000000     0.341850000000     0          
O        O      0.347900000000     0.872950000000     0.068650000000     0          
O        O      0.320100000000     0.875000000000     0.125000000000     0          
O        O      0.250000000000     0.875000000000     0.084000000000     0          
O        O      0.308100000000     0.951250000000     0.089100000000     0          
O        O      0.598800000000     0.797100000000     0.079000000000     0          
O        O      0.586900000000     0.832900000000     0.028150000000     0          
O        O      0.550600000000     0.877500000000     0.074500000000     0          
O        O      0.348900000000     0.750000000000     0.118350000000     0          
O        O      0.250000000000     0.750000000000     0.125000000000     0          
O        O      0.550400000000     0.750000000000     0.120100000000     0          
O        O      0.500000000000     0.797750000000     0.160000000000     0          
O        O      0.500000000000     0.875000000000     0.125000000000     0          
T        Si     0.307000000000     0.893250000000     0.092250000000     0          
T        Si     0.598200000000     0.847350000000     0.061600000000     0          
T        Si     0.303700000000     0.750000000000     0.142200000000     0          
T        Si     0.599700000000     0.750000000000     0.099100000000     0          
T        Si     0.561200000000     0.692900000000     0.000000000000     0          
T        Si     0.500000000000     0.855650000000     0.158150000000     0          
T        Si     0.500000000000     0.750000000000     0.140200000000     0          
O        O      0.652100000000     0.627050000000     0.068650000000     0          
O        O      0.679900000000     0.625000000000     0.125000000000     0          
O        O      0.750000000000     0.625000000000     0.084000000000     0          
O        O      0.691900000000     0.548750000000     0.089100000000     0          
O        O      0.401200000000     0.702900000000     0.079000000000     0          
O        O      0.413100000000     0.667100000000     0.028150000000     0          
O        O      0.449400000000     0.622500000000     0.074500000000     0          
O        O      0.651100000000     0.750000000000     0.118350000000     0          
O        O      0.750000000000     0.750000000000     0.125000000000     0          
O        O      0.449600000000     0.750000000000     0.120100000000     0          
O        O      0.500000000000     0.702250000000     0.160000000000     0          
O        O      0.500000000000     0.625000000000     0.125000000000     0          
T        Si     0.693000000000     0.606750000000     0.092250000000     0          
T        Si     0.401800000000     0.652650000000     0.061600000000     0          
T        Si     0.696300000000     0.750000000000     0.142200000000     0          
T        Si     0.400300000000     0.750000000000     0.099100000000     0          
T        Si     0.438800000000     0.807100000000     0.000000000000     0          
T        Si     0.500000000000     0.644350000000     0.158150000000     0          
O        O      0.652100000000     0.872950000000     0.068650000000     0          
O        O      0.679900000000     0.875000000000     0.125000000000     0          
O        O      0.750000000000     0.875000000000     0.084000000000     0          
O        O      0.691900000000     0.951250000000     0.089100000000     0          
O        O      0.401200000000     0.797100000000     0.079000000000     0          
O        O      0.413100000000     0.832900000000     0.028150000000     0          
O        O      0.449400000000     0.877500000000     0.074500000000     0          
T        Si     0.693000000000     0.893250000000     0.092250000000     0          
T        Si     0.401800000000     0.847350000000     0.061600000000     0          
O        O      0.347900000000     0.627050000000     0.068650000000     0          
O        O      0.320100000000     0.625000000000     0.125000000000     0          
O        O      0.250000000000     0.625000000000     0.084000000000     0          
O        O      0.308100000000     0.548750000000     0.089100000000     0          
O        O      0.598800000000     0.702900000000     0.079000000000     0          
O        O      0.586900000000     0.667100000000     0.028150000000     0          
O        O      0.550600000000     0.622500000000     0.074500000000     0          
T        Si     0.307000000000     0.606750000000     0.092250000000     0          
T        Si     0.598200000000     0.652650000000     0.061600000000     0          
O        O      0.652100000000     0.627050000000     0.431350000000     0          
O        O      0.679900000000     0.625000000000     0.375000000000     0          
O        O      0.750000000000     0.625000000000     0.416000000000     0          
O        O      0.691900000000     0.548750000000     0.410900000000     0          
O        O      0.401200000000     0.702900000000     0.421000000000     0          
O        O      0.413100000000     0.667100000000     0.471850000000     0          
O        O      0.449400000000     0.622500000000     0.425500000000     0          
T        Si     0.693000000000     0.606750000000     0.407750000000     0          
T        Si     0.401800000000     0.652650000000     0.438400000000     0          
O        O      0.347900000000     0.872950000000     0.431350000000     0          
O        O      0.320100000000     0.875000000000     0.375000000000     0          
O        O      0.250000000000     0.875000000000     0.416000000000     0          
O        O      0.308100000000     0.951250000000     0.410900000000     0          
O        O      0.598800000000     0.797100000000     0.421000000000     0          
O        O      0.586900000000     0.832900000000     0.471850000000     0          
O        O      0.550600000000     0.877500000000     0.425500000000     0          
T        Si     0.307000000000     0.893250000000     0.407750000000     0          
T        Si     0.598200000000     0.847350000000     0.438400000000     0          
O        O      0.347900000000     0.877050000000     0.181350000000     0          
O        O      0.250000000000     0.875000000000     0.166000000000     0          
O        O      0.308100000000     0.798750000000     0.160900000000     0          
O        O      0.598800000000     0.952900000000     0.171000000000     0          
O        O      0.586900000000     0.917100000000     0.221850000000     0          
O        O      0.550600000000     0.872500000000     0.175500000000     0          
O        O      0.348900000000     0.500000000000     0.131650000000     0          
O        O      0.250000000000     0.500000000000     0.125000000000     0          
O        O      0.550400000000     0.500000000000     0.129900000000     0          
O        O      0.500000000000     0.565850000000     0.250000000000     0          
O        O      0.572500000000     0.500000000000     0.250000000000     0          
O        O      0.500000000000     0.952250000000     0.090000000000     0          
T        Si     0.307000000000     0.856750000000     0.157750000000     0          
T        Si     0.598200000000     0.902650000000     0.188400000000     0          
T        Si     0.303700000000     0.500000000000     0.107800000000     0          
T        Si     0.599700000000     0.500000000000     0.150900000000     0          
T        Si     0.561200000000     0.557100000000     0.250000000000     0          
T        Si     0.500000000000     0.894350000000     0.091850000000     0          
T        Si     0.500000000000     0.500000000000     0.109800000000     0          
O        O      0.652100000000     0.622950000000     0.181350000000     0          
O        O      0.750000000000     0.625000000000     0.166000000000     0          
O        O      0.691900000000     0.701250000000     0.160900000000     0          
O        O      0.401200000000     0.547100000000     0.171000000000     0          
O        O      0.413100000000     0.582900000000     0.221850000000     0          
O        O      0.449400000000     0.627500000000     0.175500000000     0          
O        O      0.651100000000     0.500000000000     0.131650000000     0          
O        O      0.750000000000     0.500000000000     0.125000000000     0          
O        O      0.449600000000     0.500000000000     0.129900000000     0          
O        O      0.500000000000     0.934150000000     0.250000000000     0          
O        O      0.427500000000     0.500000000000     0.250000000000     0          
O        O      0.500000000000     0.547750000000     0.090000000000     0          
T        Si     0.693000000000     0.643250000000     0.157750000000     0          
T        Si     0.401800000000     0.597350000000     0.188400000000     0          
T        Si     0.696300000000     0.500000000000     0.107800000000     0          
T        Si     0.400300000000     0.500000000000     0.150900000000     0          
T        Si     0.438800000000     0.942900000000     0.250000000000     0          
T        Si     0.500000000000     0.605650000000     0.091850000000     0          
O        O      0.347900000000     0.622950000000     0.318650000000     0          
O        O      0.250000000000     0.625000000000     0.334000000000     0          
O        O      0.308100000000     0.701250000000     0.339100000000     0          
O        O      0.598800000000     0.547100000000     0.329000000000     0          
O        O      0.586900000000     0.582900000000     0.278150000000     0          
O        O      0.550600000000     0.627500000000     0.324500000000     0          
O        O      0.348900000000     0.500000000000     0.368350000000     0          
O        O      0.250000000000     0.500000000000     0.375000000000     0          
O        O      0.550400000000     0.500000000000     0.370100000000     0          
O        O      0.500000000000     0.547750000000     0.410000000000     0          
T        Si     0.307000000000     0.643250000000     0.342250000000     0          
T        Si     0.598200000000     0.597350000000     0.311600000000     0          
T        Si     0.303700000000     0.500000000000     0.392200000000     0          
T        Si     0.599700000000     0.500000000000     0.349100000000     0          
T        Si     0.561200000000     0.942900000000     0.250000000000     0          
T        Si     0.500000000000     0.605650000000     0.408150000000     0          
T        Si     0.500000000000     0.500000000000     0.390200000000     0          
O        O      0.652100000000     0.877050000000     0.318650000000     0          
O        O      0.750000000000     0.875000000000     0.334000000000     0          
O        O      0.691900000000     0.798750000000     0.339100000000     0          
O        O      0.401200000000     0.952900000000     0.329000000000     0          
O        O      0.413100000000     0.917100000000     0.278150000000     0          
O        O      0.449400000000     0.872500000000     0.324500000000     0          
O        O      0.651100000000     0.500000000000     0.368350000000     0          
O        O      0.750000000000     0.500000000000     0.375000000000     0          
O        O      0.449600000000     0.500000000000     0.370100000000     0          
O        O      0.500000000000     0.952250000000     0.410000000000     0          
T        Si     0.693000000000     0.856750000000     0.342250000000     0          
T        Si     0.401800000000     0.902650000000     0.311600000000     0          
T        Si     0.696300000000     0.500000000000     0.392200000000     0          
T        Si     0.400300000000     0.500000000000     0.349100000000     0          
T        Si     0.438800000000     0.557100000000     0.250000000000     0          
T        Si     0.500000000000     0.894350000000     0.408150000000     0          
O        O      0.652100000000     0.622950000000     0.318650000000     0          
O        O      0.750000000000     0.625000000000     0.334000000000     0          
O        O      0.691900000000     0.701250000000     0.339100000000     0          
O        O      0.401200000000     0.547100000000     0.329000000000     0          
O        O      0.413100000000     0.582900000000     0.278150000000     0          
O        O      0.449400000000     0.627500000000     0.324500000000     0          
T        Si     0.693000000000     0.643250000000     0.342250000000     0          
T        Si     0.401800000000     0.597350000000     0.311600000000     0          
O        O      0.347900000000     0.877050000000     0.318650000000     0          
O        O      0.250000000000     0.875000000000     0.334000000000     0          
O        O      0.308100000000     0.798750000000     0.339100000000     0          
O        O      0.598800000000     0.952900000000     0.329000000000     0          
O        O      0.586900000000     0.917100000000     0.278150000000     0          
O        O      0.550600000000     0.872500000000     0.324500000000     0          
T        Si     0.307000000000     0.856750000000     0.342250000000     0          
T        Si     0.598200000000     0.902650000000     0.311600000000     0          
O        O      0.652100000000     0.877050000000     0.181350000000     0          
O        O      0.750000000000     0.875000000000     0.166000000000     0          
O        O      0.691900000000     0.798750000000     0.160900000000     0          
O        O      0.401200000000     0.952900000000     0.171000000000     0          
O        O      0.413100000000     0.917100000000     0.221850000000     0          
O        O      0.449400000000     0.872500000000     0.175500000000     0          
T        Si     0.693000000000     0.856750000000     0.157750000000     0          
T        Si     0.401800000000     0.902650000000     0.188400000000     0          
O        O      0.347900000000     0.622950000000     0.181350000000     0          
O        O      0.250000000000     0.625000000000     0.166000000000     0          
O        O      0.308100000000     0.701250000000     0.160900000000     0          
O        O      0.598800000000     0.547100000000     0.171000000000     0          
O        O      0.586900000000     0.582900000000     0.221850000000     0          
O        O      0.550600000000     0.627500000000     0.175500000000     0          
T        Si     0.307000000000     0.643250000000     0.157750000000     0          
T        Si     0.598200000000     0.597350000000     0.188400000000     0          
O        O      0.847900000000     0.627050000000     0.181350000000     0          
O        O      0.820100000000     0.625000000000     0.125000000000     0          
O        O      0.808100000000     0.548750000000     0.160900000000     0          
O        O      0.098800000000     0.702900000000     0.171000000000     0          
O        O      0.086900000000     0.667100000000     0.221850000000     0          
O        O      0.050600000000     0.622500000000     0.175500000000     0          
O        O      0.848900000000     0.750000000000     0.131650000000     0          
O        O      0.050400000000     0.750000000000     0.129900000000     0          
O        O      0.000000000000     0.815850000000     0.250000000000     0          
O        O      0.072500000000     0.750000000000     0.250000000000     0          
O        O      0.000000000000     0.702250000000     0.090000000000     0          
O        O      0.000000000000     0.625000000000     0.125000000000     0          
T        Si     0.807000000000     0.606750000000     0.157750000000     0          
T        Si     0.098200000000     0.652650000000     0.188400000000     0          
T        Si     0.803700000000     0.750000000000     0.107800000000     0          
T        Si     0.099700000000     0.750000000000     0.150900000000     0          
T        Si     0.061200000000     0.807100000000     0.250000000000     0          
T        Si     0.000000000000     0.644350000000     0.091850000000     0          
T        Si     0.000000000000     0.750000000000     0.109800000000     0          
O        O      0.152100000000     0.872950000000     0.181350000000     0          
O        O      0.179900000000     0.875000000000     0.125000000000     0          
O        O      0.191900000000     0.951250000000     0.160900000000     0          
O        O      0.901200000000     0.797100000000     0.171000000000     0          
O        O      0.913100000000     0.832900000000     0.221850000000     0          
O        O      0.949400000000     0.877500000000     0.175500000000     0          
O        O      0.151100000000     0.750000000000     0.131650000000     0          
O        O      0.949600000000     0.750000000000     0.129900000000     0          
O        O      0.000000000000     0.684150000000     0.250000000000     0          
O        O      0.927500000000     0.750000000000     0.250000000000     0          
O        O      0.000000000000     0.797750000000     0.090000000000     0          
O        O      0.000000000000     0.875000000000     0.125000000000     0          
T        Si     0.193000000000     0.893250000000     0.157750000000     0          
T        Si     0.901800000000     0.847350000000     0.188400000000     0          
T        Si     0.196300000000     0.750000000000     0.107800000000     0          
T        Si     0.900300000000     0.750000000000     0.150900000000     0          
T        Si     0.938800000000     0.692900000000     0.250000000000     0          
T        Si     0.000000000000     0.855650000000     0.091850000000     0          
O        O      0.847900000000     0.872950000000     0.318650000000     0          
O        O      0.820100000000     0.875000000000     0.375000000000     0          
O        O      0.808100000000     0.951250000000     0.339100000000     0          
O        O      0.098800000000     0.797100000000     0.329000000000     0          
O        O      0.086900000000     0.832900000000     0.278150000000     0          
O        O      0.050600000000     0.877500000000     0.324500000000     0          
O        O      0.848900000000     0.750000000000     0.368350000000     0          
O        O      0.050400000000     0.750000000000     0.370100000000     0          
O        O      0.000000000000     0.797750000000     0.410000000000     0          
O        O      0.000000000000     0.875000000000     0.375000000000     0          
T        Si     0.807000000000     0.893250000000     0.342250000000     0          
T        Si     0.098200000000     0.847350000000     0.311600000000     0          
T        Si     0.803700000000     0.750000000000     0.392200000000     0          
T        Si     0.099700000000     0.750000000000     0.349100000000     0          
T        Si     0.061200000000     0.692900000000     0.250000000000     0          
T        Si     0.000000000000     0.855650000000     0.408150000000     0          
T        Si     0.000000000000     0.750000000000     0.390200000000     0          
O        O      0.152100000000     0.627050000000     0.318650000000     0          
O        O      0.179900000000     0.625000000000     0.375000000000     0          
O        O      0.191900000000     0.548750000000     0.339100000000     0          
O        O      0.901200000000     0.702900000000     0.329000000000     0          
O        O      0.913100000000     0.667100000000     0.278150000000     0          
O        O      0.949400000000     0.622500000000     0.324500000000     0          
O        O      0.151100000000     0.750000000000     0.368350000000     0          
O        O      0.949600000000     0.750000000000     0.370100000000     0          
O        O      0.000000000000     0.702250000000     0.410000000000     0          
O        O      0.000000000000     0.625000000000     0.375000000000     0          
T        Si     0.193000000000     0.606750000000     0.342250000000     0          
T        Si     0.901800000000     0.652650000000     0.311600000000     0          
T        Si     0.196300000000     0.750000000000     0.392200000000     0          
T        Si     0.900300000000     0.750000000000     0.349100000000     0          
T        Si     0.938800000000     0.807100000000     0.250000000000     0          
T        Si     0.000000000000     0.644350000000     0.408150000000     0          
O        O      0.152100000000     0.872950000000     0.318650000000     0          
O        O      0.179900000000     0.875000000000     0.375000000000     0          
O        O      0.191900000000     0.951250000000     0.339100000000     0          
O        O      0.901200000000     0.797100000000     0.329000000000     0          
O        O      0.913100000000     0.832900000000     0.278150000000     0          
O        O      0.949400000000     0.877500000000     0.324500000000     0          
T        Si     0.193000000000     0.893250000000     0.342250000000     0          
T        Si     0.901800000000     0.847350000000     0.311600000000     0          
O        O      0.847900000000     0.627050000000     0.318650000000     0          
O        O      0.820100000000     0.625000000000     0.375000000000     0          
O        O      0.808100000000     0.548750000000     0.339100000000     0          
O        O      0.098800000000     0.702900000000     0.329000000000     0          
O        O      0.086900000000     0.667100000000     0.278150000000     0          
O        O      0.050600000000     0.622500000000     0.324500000000     0          
T        Si     0.807000000000     0.606750000000     0.342250000000     0          
T        Si     0.098200000000     0.652650000000     0.311600000000     0          
O        O      0.152100000000     0.627050000000     0.181350000000     0          
O        O      0.179900000000     0.625000000000     0.125000000000     0          
O        O      0.191900000000     0.548750000000     0.160900000000     0          
O        O      0.901200000000     0.702900000000     0.171000000000     0          
O        O      0.913100000000     0.667100000000     0.221850000000     0          
O        O      0.949400000000     0.622500000000     0.175500000000     0          
T        Si     0.193000000000     0.606750000000     0.157750000000     0          
T        Si     0.901800000000     0.652650000000     0.188400000000     0          
O        O      0.847900000000     0.872950000000     0.181350000000     0          
O        O      0.820100000000     0.875000000000     0.125000000000     0          
O        O      0.808100000000     0.951250000000     0.160900000000     0          
O        O      0.098800000000     0.797100000000     0.171000000000     0          
O        O      0.086900000000     0.832900000000     0.221850000000     0          
O        O      0.050600000000     0.877500000000     0.175500000000     0          
T        Si     0.807000000000     0.893250000000     0.157750000000     0          
T        Si     0.098200000000     0.847350000000     0.188400000000     0          
O        O      0.847900000000     0.877050000000     0.431350000000     0          
O        O      0.808100000000     0.798750000000     0.410900000000     0          
O        O      0.098800000000     0.952900000000     0.421000000000     0          
O        O      0.086900000000     0.917100000000     0.471850000000     0          
O        O      0.050600000000     0.872500000000     0.425500000000     0          
O        O      0.848900000000     0.500000000000     0.381650000000     0          
O        O      0.050400000000     0.500000000000     0.379900000000     0          
O        O      0.000000000000     0.565850000000     0.000000000000     0          
O        O      0.072500000000     0.500000000000     0.000000000000     0          
O        O      0.000000000000     0.952250000000     0.340000000000     0          
T        Si     0.807000000000     0.856750000000     0.407750000000     0          
T        Si     0.098200000000     0.902650000000     0.438400000000     0          
T        Si     0.803700000000     0.500000000000     0.357800000000     0          
T        Si     0.099700000000     0.500000000000     0.400900000000     0          
T        Si     0.061200000000     0.557100000000     0.000000000000     0          
T        Si     0.000000000000     0.894350000000     0.341850000000     0          
T        Si     0.000000000000     0.500000000000     0.359800000000     0          
O        O      0.152100000000     0.622950000000     0.431350000000     0          
O        O      0.191900000000     0.701250000000     0.410900000000     0          
O        O      0.901200000000     0.547100000000     0.421000000000     0          
O        O      0.913100000000     0.582900000000     0.471850000000     0          
O        O      0.949400000000     0.627500000000     0.425500000000     0          
O        O      0.151100000000     0.500000000000     0.381650000000     0          
O        O      0.949600000000     0.500000000000     0.379900000000     0          
O        O      0.000000000000     0.934150000000     0.000000000000     0          
O        O      0.927500000000     0.500000000000     0.000000000000     0          
O        O      0.000000000000     0.547750000000     0.340000000000     0          
T        Si     0.193000000000     0.643250000000     0.407750000000     0          
T        Si     0.901800000000     0.597350000000     0.438400000000     0          
T        Si     0.196300000000     0.500000000000     0.357800000000     0          
T        Si     0.900300000000     0.500000000000     0.400900000000     0          
T        Si     0.938800000000     0.942900000000     0.000000000000     0          
T        Si     0.000000000000     0.605650000000     0.341850000000     0          
O        O      0.847900000000     0.622950000000     0.068650000000     0          
O        O      0.808100000000     0.701250000000     0.089100000000     0          
O        O      0.098800000000     0.547100000000     0.079000000000     0          
O        O      0.086900000000     0.582900000000     0.028150000000     0          
O        O      0.050600000000     0.627500000000     0.074500000000     0          
O        O      0.848900000000     0.500000000000     0.118350000000     0          
O        O      0.050400000000     0.500000000000     0.120100000000     0          
O        O      0.000000000000     0.547750000000     0.160000000000     0          
T        Si     0.807000000000     0.643250000000     0.092250000000     0          
T        Si     0.098200000000     0.597350000000     0.061600000000     0          
T        Si     0.803700000000     0.500000000000     0.142200000000     0          
T        Si     0.099700000000     0.500000000000     0.099100000000     0          
T        Si     0.061200000000     0.942900000000     0.000000000000     0          
T        Si     0.000000000000     0.605650000000     0.158150000000     0          
T        Si     0.000000000000     0.500000000000     0.140200000000     0          
O        O      0.152100000000     0.877050000000     0.068650000000     0          
O        O      0.191900000000     0.798750000000     0.089100000000     0          
O        O      0.901200000000     0.952900000000     0.079000000000     0          
O        O      0.913100000000     0.917100000000     0.028150000000     0          
O        O      0.949400000000     0.872500000000     0.074500000000     0          
O        O      0.151100000000     0.500000000000     0.118350000000     0          
O        O      0.949600000000     0.500000000000     0.120100000000     0          
O        O      0.000000000000     0.952250000000     0.160000000000     0          
T        Si     0.193000000000     0.856750000000     0.092250000000     0          
T        Si     0.901800000000     0.902650000000     0.061600000000     0          
T        Si     0.196300000000     0.500000000000     0.142200000000     0          
T        Si     0.900300000000     0.500000000000     0.099100000000     0          
T        Si     0.938800000000     0.557100000000     0.000000000000     0          
T        Si     0.000000000000     0.894350000000     0.158150000000     0          
O        O      0.152100000000     0.622950000000     0.068650000000     0          
O        O      0.191900000000     0.701250000000     0.089100000000     0          
O        O      0.901200000000     0.547100000000     0.079000000000     0          
O        O      0.913100000000     0.582900000000     0.028150000000     0          
O        O      0.949400000000     0.627500000000     0.074500000000     0          
T        Si     0.193000000000     0.643250000000     0.092250000000     0          
T        Si     0.901800000000     0.597350000000     0.061600000000     0          
O        O      0.847900000000     0.877050000000     0.068650000000     0          
O        O      0.808100000000     0.798750000000     0.089100000000     0          
O        O      0.098800000000     0.952900000000     0.079000000000     0          
O        O      0.086900000000     0.917100000000     0.028150000000     0          
O        O      0.050600000000     0.872500000000     0.074500000000     0          
T        Si     0.807000000000     0.856750000000     0.092250000000     0          
T        Si     0.098200000000     0.902650000000     0.061600000000     0          
O        O      0.152100000000     0.877050000000     0.431350000000     0          
O        O      0.191900000000     0.798750000000     0.410900000000     0          
O        O      0.901200000000     0.952900000000     0.421000000000     0          
O        O      0.913100000000     0.917100000000     0.471850000000     0          
O        O      0.949400000000     0.872500000000     0.425500000000     0          
T        Si     0.193000000000     0.856750000000     0.407750000000     0          
T        Si     0.901800000000     0.902650000000     0.438400000000     0          
O        O      0.847900000000     0.622950000000     0.431350000000     0          
O        O      0.808100000000     0.701250000000     0.410900000000     0          
O        O      0.098800000000     0.547100000000     0.421000000000     0          
O        O      0.086900000000     0.582900000000     0.471850000000     0          
O        O      0.050600000000     0.627500000000     0.425500000000     0          
T        Si     0.807000000000     0.643250000000     0.407750000000     0          
T        Si     0.098200000000     0.597350000000     0.438400000000     0          
O        O      0.347900000000     0.627050000000     0.931350000000     0          
O        O      0.320100000000     0.625000000000     0.875000000000     0          
O        O      0.250000000000     0.625000000000     0.916000000000     0          
O        O      0.308100000000     0.548750000000     0.910900000000     0          
O        O      0.598800000000     0.702900000000     0.921000000000     0          
O        O      0.586900000000     0.667100000000     0.971850000000     0          
O        O      0.550600000000     0.622500000000     0.925500000000     0          
O        O      0.348900000000     0.750000000000     0.881650000000     0          
O        O      0.250000000000     0.750000000000     0.875000000000     0          
O        O      0.550400000000     0.750000000000     0.879900000000     0          
O        O      0.500000000000     0.815850000000     0.500000000000     0          
O        O      0.572500000000     0.750000000000     0.500000000000     0          
O        O      0.500000000000     0.702250000000     0.840000000000     0          
O        O      0.500000000000     0.625000000000     0.875000000000     0          
T        Si     0.307000000000     0.606750000000     0.907750000000     0          
T        Si     0.598200000000     0.652650000000     0.938400000000     0          
T        Si     0.303700000000     0.750000000000     0.857800000000     0          
T        Si     0.599700000000     0.750000000000     0.900900000000     0          
T        Si     0.561200000000     0.807100000000     0.500000000000     0          
T        Si     0.500000000000     0.644350000000     0.841850000000     0          
T        Si     0.500000000000     0.750000000000     0.859800000000     0          
O        O      0.652100000000     0.872950000000     0.931350000000     0          
O        O      0.679900000000     0.875000000000     0.875000000000     0          
O        O      0.750000000000     0.875000000000     0.916000000000     0          
O        O      0.691900000000     0.951250000000     0.910900000000     0          
O        O      0.401200000000     0.797100000000     0.921000000000     0          
O        O      0.413100000000     0.832900000000     0.971850000000     0          
O        O      0.449400000000     0.877500000000     0.925500000000     0          
O        O      0.651100000000     0.750000000000     0.881650000000     0          
O        O      0.750000000000     0.750000000000     0.875000000000     0          
O        O      0.449600000000     0.750000000000     0.879900000000     0          
O        O      0.500000000000     0.684150000000     0.500000000000     0          
O        O      0.427500000000     0.750000000000     0.500000000000     0          
O        O      0.500000000000     0.797750000000     0.840000000000     0          
O        O      0.500000000000     0.875000000000     0.875000000000     0          
T        Si     0.693000000000     0.893250000000     0.907750000000     0          
T        Si     0.401800000000     0.847350000000     0.938400000000     0          
T        Si     0.696300000000     0.750000000000     0.857800000000     0          
T        Si     0.400300000000     0.750000000000     0.900900000000     0          
T        Si     0.438800000000     0.692900000000     0.500000000000     0          
T        Si     0.500000000000     0.855650000000     0.841850000000     0          
O        O      0.347900000000     0.872950000000     0.568650000000     0          
O        O      0.320100000000     0.875000000000     0.625000000000     0          
O        O      0.250000000000     0.875000000000     0.584000000000     0          
O        O      0.308100000000     0.951250000000     0.589100000000     0          
O        O      0.598800000000     0.797100000000     0.579000000000     0          
O        O      0.586900000000     0.832900000000     0.528150000000     0          
O        O      0.550600000000     0.877500000000     0.574500000000     0          
O        O      0.348900000000     0.750000000000     0.618350000000     0          
O        O      0.250000000000     0.750000000000     0.625000000000     0          
O        O      0.550400000000     0.750000000000     0.620100000000     0          
O        O      0.500000000000     0.797750000000     0.660000000000     0          
O        O      0.500000000000     0.875000000000     0.625000000000     0          
T        Si     0.307000000000     0.893250000000     0.592250000000     0          
T        Si     0.598200000000     0.847350000000     0.561600000000     0          
T        Si     0.303700000000     0.750000000000     0.642200000000     0          
T        Si     0.599700000000     0.750000000000     0.599100000000     0          
T        Si     0.561200000000     0.692900000000     0.500000000000     0          
T        Si     0.500000000000     0.855650000000     0.658150000000     0          
T        Si     0.500000000000     0.750000000000     0.640200000000     0          
O        O      0.652100000000     0.627050000000     0.568650000000     0          
O        O      0.679900000000     0.625000000000     0.625000000000     0          
O        O      0.750000000000     0.625000000000     0.584000000000     0          
O        O      0.691900000000     0.548750000000     0.589100000000     0          
O        O      0.401200000000     0.702900000000     0.579000000000     0          
O        O      0.413100000000     0.667100000000     0.528150000000     0          
O        O      0.449400000000     0.622500000000     0.574500000000     0          
O        O      0.651100000000     0.750000000000     0.618350000000     0          
O        O      0.750000000000     0.750000000000     0.625000000000     0          
O        O      0.449600000000     0.750000000000     0.620100000000     0          
O        O      0.500000000000     0.702250000000     0.660000000000     0          
O        O      0.500000000000     0.625000000000     0.625000000000     0          
T        Si     0.693000000000     0.606750000000     0.592250000000     0          
T        Si     0.401800000000     0.652650000000     0.561600000000     0          
T        Si     0.696300000000     0.750000000000     0.642200000000     0          
T        Si     0.400300000000     0.750000000000     0.599100000000     0          
T        Si     0.438800000000     0.807100000000     0.500000000000     0          
T        Si     0.500000000000     0.644350000000     0.658150000000     0          
O        O      0.652100000000     0.872950000000     0.568650000000     0          
O        O      0.679900000000     0.875000000000     0.625000000000     0          
O        O      0.750000000000     0.875000000000     0.584000000000     0          
O        O      0.691900000000     0.951250000000     0.589100000000     0          
O        O      0.401200000000     0.797100000000     0.579000000000     0          
O        O      0.413100000000     0.832900000000     0.528150000000     0          
O        O      0.449400000000     0.877500000000     0.574500000000     0          
T        Si     0.693000000000     0.893250000000     0.592250000000     0          
T        Si     0.401800000000     0.847350000000     0.561600000000     0          
O        O      0.347900000000     0.627050000000     0.568650000000     0          
O        O      0.320100000000     0.625000000000     0.625000000000     0          
O        O      0.250000000000     0.625000000000     0.584000000000     0          
O        O      0.308100000000     0.548750000000     0.589100000000     0          
O        O      0.598800000000     0.702900000000     0.579000000000     0          
O        O      0.586900000000     0.667100000000     0.528150000000     0          
O        O      0.550600000000     0.622500000000     0.574500000000     0          
T        Si     0.307000000000     0.606750000000     0.592250000000     0          
T        Si     0.598200000000     0.652650000000     0.561600000000     0          
O        O      0.652100000000     0.627050000000     0.931350000000     0          
O        O      0.679900000000     0.625000000000     0.875000000000     0          
O        O      0.750000000000     0.625000000000     0.916000000000     0          
O        O      0.691900000000     0.548750000000     0.910900000000     0          
O        O      0.401200000000     0.702900000000     0.921000000000     0          
O        O      0.413100000000     0.667100000000     0.971850000000     0          
O        O      0.449400000000     0.622500000000     0.925500000000     0          
T        Si     0.693000000000     0.606750000000     0.907750000000     0          
T        Si     0.401800000000     0.652650000000     0.938400000000     0          
O        O      0.347900000000     0.872950000000     0.931350000000     0          
O        O      0.320100000000     0.875000000000     0.875000000000     0          
O        O      0.250000000000     0.875000000000     0.916000000000     0          
O        O      0.308100000000     0.951250000000     0.910900000000     0          
O        O      0.598800000000     0.797100000000     0.921000000000     0          
O        O      0.586900000000     0.832900000000     0.971850000000     0          
O        O      0.550600000000     0.877500000000     0.925500000000     0          
T        Si     0.307000000000     0.893250000000     0.907750000000     0          
T        Si     0.598200000000     0.847350000000     0.938400000000     0          
O        O      0.347900000000     0.877050000000     0.681350000000     0          
O        O      0.250000000000     0.875000000000     0.666000000000     0          
O        O      0.308100000000     0.798750000000     0.660900000000     0          
O        O      0.598800000000     0.952900000000     0.671000000000     0          
O        O      0.586900000000     0.917100000000     0.721850000000     0          
O        O      0.550600000000     0.872500000000     0.675500000000     0          
O        O      0.348900000000     0.500000000000     0.631650000000     0          
O        O      0.250000000000     0.500000000000     0.625000000000     0          
O        O      0.550400000000     0.500000000000     0.629900000000     0          
O        O      0.500000000000     0.565850000000     0.750000000000     0          
O        O      0.572500000000     0.500000000000     0.750000000000     0          
O        O      0.500000000000     0.952250000000     0.590000000000     0          
T        Si     0.307000000000     0.856750000000     0.657750000000     0          
T        Si     0.598200000000     0.902650000000     0.688400000000     0          
T        Si     0.303700000000     0.500000000000     0.607800000000     0          
T        Si     0.599700000000     0.500000000000     0.650900000000     0          
T        Si     0.561200000000     0.557100000000     0.750000000000     0          
T        Si     0.500000000000     0.894350000000     0.591850000000     0          
T        Si     0.500000000000     0.500000000000     0.609800000000     0          
O        O      0.652100000000     0.622950000000     0.681350000000     0          
O        O      0.750000000000     0.625000000000     0.666000000000     0          
O        O      0.691900000000     0.701250000000     0.660900000000     0          
O        O      0.401200000000     0.547100000000     0.671000000000     0          
O        O      0.413100000000     0.582900000000     0.721850000000     0          
O        O      0.449400000000     0.627500000000     0.675500000000     0          
O        O      0.651100000000     0.500000000000     0.631650000000     0          
O        O      0.750000000000     0.500000000000     0.625000000000     0          
O        O      0.449600000000     0.500000000000     0.629900000000     0          
O        O      0.500000000000     0.934150000000     0.750000000000     0          
O        O      0.427500000000     0.500000000000     0.750000000000     0          
O        O      0.500000000000     0.547750000000     0.590000000000     0          
T        Si     0.693000000000     0.643250000000     0.657750000000     0          
T        Si     0.401800000000     0.597350000000     0.688400000000     0          
T        Si     0.696300000000     0.500000000000     0.607800000000     0          
T        Si     0.400300000000     0.500000000000     0.650900000000     0          
T        Si     0.438800000000     0.942900000000     0.750000000000     0          
T        Si     0.500000000000     0.605650000000     0.591850000000     0          
O        O      0.347900000000     0.622950000000     0.818650000000     0          
O        O      0.250000000000     0.625000000000     0.834000000000     0          
O        O      0.308100000000     0.701250000000     0.839100000000     0          
O        O      0.598800000000     0.547100000000     0.829000000000     0          
O        O      0.586900000000     0.582900000000     0.778150000000     0          
O        O      0.550600000000     0.627500000000     0.824500000000     0          
O        O      0.348900000000     0.500000000000     0.868350000000     0          
O        O      0.250000000000     0.500000000000     0.875000000000     0          
O        O      0.550400000000     0.500000000000     0.870100000000     0          
O        O      0.500000000000     0.547750000000     0.910000000000     0          
T        Si     0.307000000000     0.643250000000     0.842250000000     0          
T        Si     0.598200000000     0.597350000000     0.811600000000     0          
T        Si     0.303700000000     0.500000000000     0.892200000000     0          
T        Si     0.599700000000     0.500000000000     0.849100000000     0          
T        Si     0.561200000000     0.942900000000     0.750000000000     0          
T        Si     0.500000000000     0.605650000000     0.908150000000     0          
T        Si     0.500000000000     0.500000000000     0.890200000000     0          
O        O      0.652100000000     0.877050000000     0.818650000000     0          
O        O      0.750000000000     0.875000000000     0.834000000000     0          
O        O      0.691900000000     0.798750000000     0.839100000000     0          
O        O      0.401200000000     0.952900000000     0.829000000000     0          
O        O      0.413100000000     0.917100000000     0.778150000000     0          
O        O      0.449400000000     0.872500000000     0.824500000000     0          
O        O      0.651100000000     0.500000000000     0.868350000000     0          
O        O      0.750000000000     0.500000000000     0.875000000000     0          
O        O      0.449600000000     0.500000000000     0.870100000000     0          
O        O      0.500000000000     0.952250000000     0.910000000000     0          
T        Si     0.693000000000     0.856750000000     0.842250000000     0          
T        Si     0.401800000000     0.902650000000     0.811600000000     0          
T        Si     0.696300000000     0.500000000000     0.892200000000     0          
T        Si     0.400300000000     0.500000000000     0.849100000000     0          
T        Si     0.438800000000     0.557100000000     0.750000000000     0          
T        Si     0.500000000000     0.894350000000     0.908150000000     0          
O        O      0.652100000000     0.622950000000     0.818650000000     0          
O        O      0.750000000000     0.625000000000     0.834000000000     0          
O        O      0.691900000000     0.701250000000     0.839100000000     0          
O        O      0.401200000000     0.547100000000     0.829000000000     0          
O        O      0.413100000000     0.582900000000     0.778150000000     0          
O        O      0.449400000000     0.627500000000     0.824500000000     0          
T        Si     0.693000000000     0.643250000000     0.842250000000     0          
T        Si     0.401800000000     0.597350000000     0.811600000000     0          
O        O      0.347900000000     0.877050000000     0.818650000000     0          
O        O      0.250000000000     0.875000000000     0.834000000000     0          
O        O      0.308100000000     0.798750000000     0.839100000000     0          
O        O      0.598800000000     0.952900000000     0.829000000000     0          
O        O      0.586900000000     0.917100000000     0.778150000000     0          
O        O      0.550600000000     0.872500000000     0.824500000000     0          
T        Si     0.307000000000     0.856750000000     0.842250000000     0          
T        Si     0.598200000000     0.902650000000     0.811600000000     0          
O        O      0.652100000000     0.877050000000     0.681350000000     0          
O        O      0.750000000000     0.875000000000     0.666000000000     0          
O        O      0.691900000000     0.798750000000     0.660900000000     0          
O        O      0.401200000000     0.952900000000     0.671000000000     0          
O        O      0.413100000000     0.917100000000     0.721850000000     0          
O        O      0.449400000000     0.872500000000     0.675500000000     0          
T        Si     0.693000000000     0.856750000000     0.657750000000     0          
T        Si     0.401800000000     0.902650000000     0.688400000000     0          
O        O      0.347900000000     0.622950000000     0.681350000000     0          
O        O      0.250000000000     0.625000000000     0.666000000000     0          
O        O      0.308100000000     0.701250000000     0.660900000000     0          
O        O      0.598800000000     0.547100000000     0.671000000000     0          
O        O      0.586900000000     0.582900000000     0.721850000000     0          
O        O      0.550600000000     0.627500000000     0.675500000000     0          
T        Si     0.307000000000     0.643250000000     0.657750000000     0          
T        Si     0.598200000000     0.597350000000     0.688400000000     0          
O        O      0.847900000000     0.627050000000     0.681350000000     0          
O        O      0.820100000000     0.625000000000     0.625000000000     0          
O        O      0.808100000000     0.548750000000     0.660900000000     0          
O        O      0.098800000000     0.702900000000     0.671000000000     0          
O        O      0.086900000000     0.667100000000     0.721850000000     0          
O        O      0.050600000000     0.622500000000     0.675500000000     0          
O        O      0.848900000000     0.750000000000     0.631650000000     0          
O        O      0.050400000000     0.750000000000     0.629900000000     0          
O        O      0.000000000000     0.815850000000     0.750000000000     0          
O        O      0.072500000000     0.750000000000     0.750000000000     0          
O        O      0.000000000000     0.702250000000     0.590000000000     0          
O        O      0.000000000000     0.625000000000     0.625000000000     0          
T        Si     0.807000000000     0.606750000000     0.657750000000     0          
T        Si     0.098200000000     0.652650000000     0.688400000000     0          
T        Si     0.803700000000     0.750000000000     0.607800000000     0          
T        Si     0.099700000000     0.750000000000     0.650900000000     0          
T        Si     0.061200000000     0.807100000000     0.750000000000     0          
T        Si     0.000000000000     0.644350000000     0.591850000000     0          
T        Si     0.000000000000     0.750000000000     0.609800000000     0          
O        O      0.152100000000     0.872950000000     0.681350000000     0          
O        O      0.179900000000     0.875000000000     0.625000000000     0          
O        O      0.191900000000     0.951250000000     0.660900000000     0          
O        O      0.901200000000     0.797100000000     0.671000000000     0          
O        O      0.913100000000     0.832900000000     0.721850000000     0          
O        O      0.949400000000     0.877500000000     0.675500000000     0          
O        O      0.151100000000     0.750000000000     0.631650000000     0          
O        O      0.949600000000     0.750000000000     0.629900000000     0          
O        O      0.000000000000     0.684150000000     0.750000000000     0          
O        O      0.927500000000     0.750000000000     0.750000000000     0          
O        O      0.000000000000     0.797750000000     0.590000000000     0          
O        O      0.000000000000     0.875000000000     0.625000000000     0          
T        Si     0.193000000000     0.893250000000     0.657750000000     0          
T        Si     0.901800000000     0.847350000000     0.688400000000     0          
T        Si     0.196300000000     0.750000000000     0.607800000000     0          
T        Si     0.900300000000     0.750000000000     0.650900000000     0          
T        Si     0.938800000000     0.692900000000     0.750000000000     0          
T        Si     0.000000000000     0.855650000000     0.591850000000     0          
O        O      0.847900000000     0.872950000000     0.818650000000     0          
O        O      0.820100000000     0.875000000000     0.875000000000     0          
O        O      0.808100000000     0.951250000000     0.839100000000     0          
O        O      0.098800000000     0.797100000000     0.829000000000     0          
O        O      0.086900000000     0.832900000000     0.778150000000     0          
O        O      0.050600000000     0.877500000000     0.824500000000     0          
O        O      0.848900000000     0.750000000000     0.868350000000     0          
O        O      0.050400000000     0.750000000000     0.870100000000     0          
O        O      0.000000000000     0.797750000000     0.910000000000     0          
O        O      0.000000000000     0.875000000000     0.875000000000     0          
T        Si     0.807000000000     0.893250000000     0.842250000000     0          
T        Si     0.098200000000     0.847350000000     0.811600000000     0          
T        Si     0.803700000000     0.750000000000     0.892200000000     0          
T        Si     0.099700000000     0.750000000000     0.849100000000     0          
T        Si     0.061200000000     0.692900000000     0.750000000000     0          
T        Si     0.000000000000     0.855650000000     0.908150000000     0          
T        Si     0.000000000000     0.750000000000     0.890200000000     0          
O        O      0.152100000000     0.627050000000     0.818650000000     0          
O        O      0.179900000000     0.625000000000     0.875000000000     0          
O        O      0.191900000000     0.548750000000     0.839100000000     0          
O        O      0.901200000000     0.702900000000     0.829000000000     0          
O        O      0.913100000000     0.667100000000     0.778150000000     0          
O        O      0.949400000000     0.622500000000     0.824500000000     0          
O        O      0.151100000000     0.750000000000     0.868350000000     0          
O        O      0.949600000000     0.750000000000     0.870100000000     0          
O        O      0.000000000000     0.702250000000     0.910000000000     0          
O        O      0.000000000000     0.625000000000     0.875000000000     0          
T        Si     0.193000000000     0.606750000000     0.842250000000     0          
T        Si     0.901800000000     0.652650000000     0.811600000000     0          
T        Si     0.196300000000     0.750000000000     0.892200000000     0          
T        Si     0.900300000000     0.750000000000     0.849100000000     0          
T        Si     0.938800000000     0.807100000000     0.750000000000     0          
T        Si     0.000000000000     0.644350000000     0.908150000000     0          
O        O      0.152100000000     0.872950000000     0.818650000000     0          
O        O      0.179900000000     0.875000000000     0.875000000000     0          
O        O      0.191900000000     0.951250000000     0.839100000000     0          
O        O      0.901200000000     0.797100000000     0.829000000000     0          
O        O      0.913100000000     0.832900000000     0.778150000000     0          
O        O      0.949400000000     0.877500000000     0.824500000000     0          
T        Si     0.193000000000     0.893250000000     0.842250000000     0          
T        Si     0.901800000000     0.847350000000     0.811600000000     0          
O        O      0.847900000000     0.627050000000     0.818650000000     0          
O        O      0.820100000000     0.625000000000     0.875000000000     0          
O        O      0.808100000000     0.548750000000     0.839100000000     0          
O        O      0.098800000000     0.702900000000     0.829000000000     0          
O        O      0.086900000000     0.667100000000     0.778150000000     0          
O        O      0.050600000000     0.622500000000     0.824500000000     0          
T        Si     0.807000000000     0.606750000000     0.842250000000     0          
T        Si     0.098200000000     0.652650000000     0.811600000000     0          
O        O      0.152100000000     0.627050000000     0.681350000000     0          
O        O      0.179900000000     0.625000000000     0.625000000000     0          
O        O      0.191900000000     0.548750000000     0.660900000000     0          
O        O      0.901200000000     0.702900000000     0.671000000000     0          
O        O      0.913100000000     0.667100000000     0.721850000000     0          
O        O      0.949400000000     0.622500000000     0.675500000000     0          
T        Si     0.193000000000     0.606750000000     0.657750000000     0          
T        Si     0.901800000000     0.652650000000     0.688400000000     0          
O        O      0.847900000000     0.872950000000     0.681350000000     0          
O        O      0.820100000000     0.875000000000     0.625000000000     0          
O        O      0.808100000000     0.951250000000     0.660900000000     0          
O        O      0.098800000000     0.797100000000     0.671000000000     0          
O        O      0.086900000000     0.832900000000     0.721850000000     0          
O        O      0.050600000000     0.877500000000     0.675500000000     0          
T        Si     0.807000000000     0.893250000000     0.657750000000     0          
T        Si     0.098200000000     0.847350000000     0.688400000000     0          
O        O      0.847900000000     0.877050000000     0.931350000000     0          
O        O      0.808100000000     0.798750000000     0.910900000000     0          
O        O      0.098800000000     0.952900000000     0.921000000000     0          
O        O      0.086900000000     0.917100000000     0.971850000000     0          
O        O      0.050600000000     0.872500000000     0.925500000000     0          
O        O      0.848900000000     0.500000000000     0.881650000000     0          
O        O      0.050400000000     0.500000000000     0.879900000000     0          
O        O      0.000000000000     0.565850000000     0.500000000000     0          
O        O      0.072500000000     0.500000000000     0.500000000000     0          
O        O      0.000000000000     0.952250000000     0.840000000000     0          
T        Si     0.807000000000     0.856750000000     0.907750000000     0          
T        Si     0.098200000000     0.902650000000     0.938400000000     0          
T        Si     0.803700000000     0.500000000000     0.857800000000     0          
T        Si     0.099700000000     0.500000000000     0.900900000000     0          
T        Si     0.061200000000     0.557100000000     0.500000000000     0          
T        Si     0.000000000000     0.894350000000     0.841850000000     0          
T        Si     0.000000000000     0.500000000000     0.859800000000     0          
O        O      0.152100000000     0.622950000000     0.931350000000     0          
O        O      0.191900000000     0.701250000000     0.910900000000     0          
O        O      0.901200000000     0.547100000000     0.921000000000     0          
O        O      0.913100000000     0.582900000000     0.971850000000     0          
O        O      0.949400000000     0.627500000000     0.925500000000     0          
O        O      0.151100000000     0.500000000000     0.881650000000     0          
O        O      0.949600000000     0.500000000000     0.879900000000     0          
O        O      0.000000000000     0.934150000000     0.500000000000     0          
O        O      0.927500000000     0.500000000000     0.500000000000     0          
O        O      0.000000000000     0.547750000000     0.840000000000     0          
T        Si     0.193000000000     0.643250000000     0.907750000000     0          
T        Si     0.901800000000     0.597350000000     0.938400000000     0          
T        Si     0.196300000000     0.500000000000     0.857800000000     0          
T        Si     0.900300000000     0.500000000000     0.900900000000     0          
T        Si     0.938800000000     0.942900000000     0.500000000000     0          
T        Si     0.000000000000     0.605650000000     0.841850000000     0          
O        O      0.847900000000     0.622950000000     0.568650000000     0          
O        O      0.808100000000     0.701250000000     0.589100000000     0          
O        O      0.098800000000     0.547100000000     0.579000000000     0          
O        O      0.086900000000     0.582900000000     0.528150000000     0          
O        O      0.050600000000     0.627500000000     0.574500000000     0          
O        O      0.848900000000     0.500000000000     0.618350000000     0          
O        O      0.050400000000     0.500000000000     0.620100000000     0          
O        O      0.000000000000     0.547750000000     0.660000000000     0          
T        Si     0.807000000000     0.643250000000     0.592250000000     0          
T        Si     0.098200000000     0.597350000000     0.561600000000     0          
T        Si     0.803700000000     0.500000000000     0.642200000000     0          
T        Si     0.099700000000     0.500000000000     0.599100000000     0          
T        Si     0.061200000000     0.942900000000     0.500000000000     0          
T        Si     0.000000000000     0.605650000000     0.658150000000     0          
T        Si     0.000000000000     0.500000000000     0.640200000000     0          
O        O      0.152100000000     0.877050000000     0.568650000000     0          
O        O      0.191900000000     0.798750000000     0.589100000000     0          
O        O      0.901200000000     0.952900000000     0.579000000000     0          
O        O      0.913100000000     0.917100000000     0.528150000000     0          
O        O      0.949400000000     0.872500000000     0.574500000000     0          
O        O      0.151100000000     0.500000000000     0.618350000000     0          
O        O      0.949600000000     0.500000000000     0.620100000000     0          
O        O      0.000000000000     0.952250000000     0.660000000000     0          
T        Si     0.193000000000     0.856750000000     0.592250000000     0          
T        Si     0.901800000000     0.902650000000     0.561600000000     0          
T        Si     0.196300000000     0.500000000000     0.642200000000     0          
T        Si     0.900300000000     0.500000000000     0.599100000000     0          
T        Si     0.938800000000     0.557100000000     0.500000000000     0          
T        Si     0.000000000000     0.894350000000     0.658150000000     0          
O        O      0.152100000000     0.622950000000     0.568650000000     0          
O        O      0.191900000000     0.701250000000     0.589100000000     0          
O        O      0.901200000000     0.547100000000     0.579000000000     0          
O        O      0.913100000000     0.582900000000     0.528150000000     0          
O        O      0.949400000000     0.627500000000     0.574500000000     0          
T        Si     0.193000000000     0.643250000000     0.592250000000     0          
T        Si     0.901800000000     0.597350000000     0.561600000000     0          
O        O      0.847900000000     0.877050000000     0.568650000000     0          
O        O      0.808100000000     0.798750000000     0.589100000000     0          
O        O      0.098800000000     0.952900000000     0.579000000000     0          
O        O      0.086900000000     0.917100000000     0.528150000000     0          
O        O      0.050600000000     0.872500000000     0.574500000000     0          
T        Si     0.807000000000     0.856750000000     0.592250000000     0          
T        Si     0.098200000000     0.902650000000     0.561600000000     0          
O        O      0.152100000000     0.877050000000     0.931350000000     0          
O        O      0.191900000000     0.798750000000     0.910900000000     0          
O        O      0.901200000000     0.952900000000     0.921000000000     0          
O        O      0.913100000000     0.917100000000     0.971850000000     0          
O        O      0.949400000000     0.872500000000     0.925500000000     0          
T        Si     0.193000000000     0.856750000000     0.907750000000     0          
T        Si     0.901800000000     0.902650000000     0.938400000000     0          
O        O      0.847900000000     0.622950000000     0.931350000000     0          
O        O      0.808100000000     0.701250000000     0.910900000000     0          
O        O      0.098800000000     0.547100000000     0.921000000000     0          
O        O      0.086900000000     0.582900000000     0.971850000000     0          
O        O      0.050600000000     0.627500000000     0.925500000000     0          
T        Si     0.807000000000     0.643250000000     0.907750000000     0          
T        Si     0.098200000000     0.597350000000     0.938400000000     0          


