data_zeolite

_audit_creation_method RASPA-1.0
_audit_creation_date 2021-6-7
_audit_author_name ''

_cell_length_a    40.816
_cell_length_b    26.608
_cell_length_c    40.332
_cell_angle_alpha 90
_cell_angle_beta  102.333
_cell_angle_gamma 90
_cell_volume      42791

_symmetry_cell_setting          monoclinic
_symmetry_space_group_name_Hall 'P 1'
_symmetry_space_group_name_H-M  'P 1'
_symmetry_Int_Tables_number     1

_symmetry_equiv_pos_as_xyz 'x,y,z'

loop_
_atom_site_label
_atom_site_type_symbol
_atom_site_fract_x
_atom_site_fract_y
_atom_site_fract_z
_atom_site_charge
O        O      0.061150000000     0.167200000000     0.036750000000     0          
O        O      0.053350000000     0.264800000000     0.041150000000     0          
O        O      0.004100000000     0.209350000000     0.007050000000     0          
O        O      0.058450000000     0.225050000000     0.483250000000     0          
O        O      0.127250000000     0.165800000000     0.050300000000     0          
O        O      0.093150000000     0.081500000000     0.047200000000     0          
O        O      0.094950000000     0.144600000000     0.098000000000     0          
O        O      0.190600000000     0.182600000000     0.050850000000     0          
O        O      0.143450000000     0.228850000000     0.006700000000     0          
O        O      0.154650000000     0.253150000000     0.071550000000     0          
O        O      0.214850000000     0.090350000000     0.058050000000     0          
O        O      0.253250000000     0.166650000000     0.082600000000     0          
O        O      0.203700000000     0.139350000000     0.110900000000     0          
O        O      0.153750000000     0.054550000000     0.042500000000     0          
O        O      0.199400000000     0.007400000000     0.087150000000     0          
O        O      0.202700000000     0.006750000000     0.022700000000     0          
O        O      0.102300000000     0.022850000000     0.497050000000     0          
O        O      0.112450000000     0.488050000000     0.059550000000     0          
O        O      0.315650000000     0.181850000000     0.077000000000     0          
O        O      0.303350000000     0.145500000000     0.133700000000     0          
O        O      0.292650000000     0.089550000000     0.079250000000     0          
O        O      0.379050000000     0.162650000000     0.101550000000     0          
O        O      0.351050000000     0.242900000000     0.121700000000     0          
O        O      0.415400000000     0.081150000000     0.113100000000     0          
O        O      0.444750000000     0.169850000000     0.116150000000     0          
O        O      0.412500000000     0.143450000000     0.163350000000     0          
O        O      0.353900000000     0.054350000000     0.084750000000     0          
O        O      0.390100000000     0.498100000000     0.132100000000     0          
O        O      0.308800000000     0.000450000000     0.106650000000     0          
O        O      0.461300000000     0.250800000000     0.153500000000     0          
O        O      0.003700000000     0.211350000000     0.119700000000     0          
O        O      0.443400000000     0.276200000000     0.209950000000     0          
O        O      0.440800000000     0.174750000000     0.224650000000     0          
O        O      0.375400000000     0.162750000000     0.207950000000     0          
O        O      0.414950000000     0.083950000000     0.215750000000     0          
O        O      0.313400000000     0.196050000000     0.190650000000     0          
O        O      0.363950000000     0.256150000000     0.188050000000     0          
O        O      0.297600000000     0.100250000000     0.190250000000     0          
O        O      0.252450000000     0.166400000000     0.161650000000     0          
O        O      0.353800000000     0.048450000000     0.198700000000     0          
O        O      0.296600000000     0.007300000000     0.167850000000     0          
O        O      0.404950000000     0.488900000000     0.198700000000     0          
O        O      0.190350000000     0.190500000000     0.161950000000     0          
O        O      0.209800000000     0.096100000000     0.170550000000     0          
O        O      0.128050000000     0.163350000000     0.160250000000     0          
O        O      0.092250000000     0.081300000000     0.147250000000     0          
O        O      0.062250000000     0.169950000000     0.144850000000     0          
O        O      0.153350000000     0.046050000000     0.151350000000     0          
T        Si     0.044150000000     0.216400000000     0.017050000000     0          
T        Si     0.094150000000     0.139800000000     0.058100000000     0          
T        Si     0.153950000000     0.207900000000     0.045000000000     0          
T        Si     0.215550000000     0.144900000000     0.075450000000     0          
T        Si     0.192850000000     0.039600000000     0.052650000000     0          
T        Si     0.115300000000     0.036600000000     0.036550000000     0          
T        Si     0.291150000000     0.146100000000     0.093000000000     0          
T        Si     0.352100000000     0.206850000000     0.089900000000     0          
T        Si     0.413100000000     0.139200000000     0.123700000000     0          
T        Si     0.391200000000     0.034100000000     0.100250000000     0          
T        Si     0.314750000000     0.039750000000     0.078200000000     0          
T        Si     0.464800000000     0.222300000000     0.119200000000     0          
T        Si     0.410900000000     0.141350000000     0.202800000000     0          
T        Si     0.351400000000     0.210600000000     0.208500000000     0          
T        Si     0.291650000000     0.151900000000     0.169100000000     0          
T        Si     0.314150000000     0.045350000000     0.197350000000     0          
T        Si     0.391750000000     0.035550000000     0.217600000000     0          
T        Si     0.214100000000     0.147850000000     0.151300000000     0          
T        Si     0.153350000000     0.210300000000     0.163200000000     0          
T        Si     0.094250000000     0.139800000000     0.137600000000     0          
T        Si     0.115200000000     0.031500000000     0.152100000000     0          
T        Si     0.191950000000     0.042250000000     0.171200000000     0          
T        Si     0.042850000000     0.222250000000     0.134750000000     0          
O        O      0.061150000000     0.332800000000     0.286750000000     0          
O        O      0.053350000000     0.235200000000     0.291150000000     0          
O        O      0.004100000000     0.290650000000     0.257050000000     0          
O        O      0.058450000000     0.274950000000     0.233250000000     0          
O        O      0.127250000000     0.334200000000     0.300300000000     0          
O        O      0.093150000000     0.418500000000     0.297200000000     0          
O        O      0.094950000000     0.355400000000     0.348000000000     0          
O        O      0.190600000000     0.317400000000     0.300850000000     0          
O        O      0.143450000000     0.271150000000     0.256700000000     0          
O        O      0.154650000000     0.246850000000     0.321550000000     0          
O        O      0.214850000000     0.409650000000     0.308050000000     0          
O        O      0.253250000000     0.333350000000     0.332600000000     0          
O        O      0.203700000000     0.360650000000     0.360900000000     0          
O        O      0.153750000000     0.445450000000     0.292500000000     0          
O        O      0.199400000000     0.492600000000     0.337150000000     0          
O        O      0.202700000000     0.493250000000     0.272700000000     0          
O        O      0.102300000000     0.477150000000     0.247050000000     0          
O        O      0.112450000000     0.011950000000     0.309550000000     0          
O        O      0.315650000000     0.318150000000     0.327000000000     0          
O        O      0.303350000000     0.354500000000     0.383700000000     0          
O        O      0.292650000000     0.410450000000     0.329250000000     0          
O        O      0.379050000000     0.337350000000     0.351550000000     0          
O        O      0.351050000000     0.257100000000     0.371700000000     0          
O        O      0.415400000000     0.418850000000     0.363100000000     0          
O        O      0.444750000000     0.330150000000     0.366150000000     0          
O        O      0.412500000000     0.356550000000     0.413350000000     0          
O        O      0.353900000000     0.445650000000     0.334750000000     0          
O        O      0.390100000000     0.001900000000     0.382100000000     0          
O        O      0.308800000000     0.499550000000     0.356650000000     0          
O        O      0.461300000000     0.249200000000     0.403500000000     0          
O        O      0.003700000000     0.288650000000     0.369700000000     0          
O        O      0.443400000000     0.223800000000     0.459950000000     0          
O        O      0.440800000000     0.325250000000     0.474650000000     0          
O        O      0.375400000000     0.337250000000     0.457950000000     0          
O        O      0.414950000000     0.416050000000     0.465750000000     0          
O        O      0.313400000000     0.303950000000     0.440650000000     0          
O        O      0.363950000000     0.243850000000     0.438050000000     0          
O        O      0.297600000000     0.399750000000     0.440250000000     0          
O        O      0.252450000000     0.333600000000     0.411650000000     0          
O        O      0.353800000000     0.451550000000     0.448700000000     0          
O        O      0.296600000000     0.492700000000     0.417850000000     0          
O        O      0.404950000000     0.011100000000     0.448700000000     0          
O        O      0.190350000000     0.309500000000     0.411950000000     0          
O        O      0.209800000000     0.403900000000     0.420550000000     0          
O        O      0.128050000000     0.336650000000     0.410250000000     0          
O        O      0.092250000000     0.418700000000     0.397250000000     0          
O        O      0.062250000000     0.330050000000     0.394850000000     0          
O        O      0.153350000000     0.453950000000     0.401350000000     0          
T        Si     0.044150000000     0.283600000000     0.267050000000     0          
T        Si     0.094150000000     0.360200000000     0.308100000000     0          
T        Si     0.153950000000     0.292100000000     0.295000000000     0          
T        Si     0.215550000000     0.355100000000     0.325450000000     0          
T        Si     0.192850000000     0.460400000000     0.302650000000     0          
T        Si     0.115300000000     0.463400000000     0.286550000000     0          
T        Si     0.291150000000     0.353900000000     0.343000000000     0          
T        Si     0.352100000000     0.293150000000     0.339900000000     0          
T        Si     0.413100000000     0.360800000000     0.373700000000     0          
T        Si     0.391200000000     0.465900000000     0.350250000000     0          
T        Si     0.314750000000     0.460250000000     0.328200000000     0          
T        Si     0.464800000000     0.277700000000     0.369200000000     0          
T        Si     0.410900000000     0.358650000000     0.452800000000     0          
T        Si     0.351400000000     0.289400000000     0.458500000000     0          
T        Si     0.291650000000     0.348100000000     0.419100000000     0          
T        Si     0.314150000000     0.454650000000     0.447350000000     0          
T        Si     0.391750000000     0.464450000000     0.467600000000     0          
T        Si     0.214100000000     0.352150000000     0.401300000000     0          
T        Si     0.153350000000     0.289700000000     0.413200000000     0          
T        Si     0.094250000000     0.360200000000     0.387600000000     0          
T        Si     0.115200000000     0.468500000000     0.402100000000     0          
T        Si     0.191950000000     0.457750000000     0.421200000000     0          
T        Si     0.042850000000     0.277750000000     0.384750000000     0          
O        O      0.311150000000     0.417200000000     0.036750000000     0          
O        O      0.303350000000     0.014800000000     0.041150000000     0          
O        O      0.254100000000     0.459350000000     0.007050000000     0          
O        O      0.308450000000     0.475050000000     0.483250000000     0          
O        O      0.377250000000     0.415800000000     0.050300000000     0          
O        O      0.343150000000     0.331500000000     0.047200000000     0          
O        O      0.344950000000     0.394600000000     0.098000000000     0          
O        O      0.440600000000     0.432600000000     0.050850000000     0          
O        O      0.393450000000     0.478850000000     0.006700000000     0          
O        O      0.404650000000     0.003150000000     0.071550000000     0          
O        O      0.464850000000     0.340350000000     0.058050000000     0          
O        O      0.003250000000     0.416650000000     0.082600000000     0          
O        O      0.453700000000     0.389350000000     0.110900000000     0          
O        O      0.403750000000     0.304550000000     0.042500000000     0          
O        O      0.449400000000     0.257400000000     0.087150000000     0          
O        O      0.452700000000     0.256750000000     0.022700000000     0          
O        O      0.352300000000     0.272850000000     0.497050000000     0          
O        O      0.362450000000     0.238050000000     0.059550000000     0          
O        O      0.065650000000     0.431850000000     0.077000000000     0          
O        O      0.053350000000     0.395500000000     0.133700000000     0          
O        O      0.042650000000     0.339550000000     0.079250000000     0          
O        O      0.129050000000     0.412650000000     0.101550000000     0          
O        O      0.101050000000     0.492900000000     0.121700000000     0          
O        O      0.165400000000     0.331150000000     0.113100000000     0          
O        O      0.194750000000     0.419850000000     0.116150000000     0          
O        O      0.162500000000     0.393450000000     0.163350000000     0          
O        O      0.103900000000     0.304350000000     0.084750000000     0          
O        O      0.140100000000     0.248100000000     0.132100000000     0          
O        O      0.058800000000     0.250450000000     0.106650000000     0          
O        O      0.211300000000     0.000800000000     0.153500000000     0          
O        O      0.253700000000     0.461350000000     0.119700000000     0          
O        O      0.193400000000     0.026200000000     0.209950000000     0          
O        O      0.190800000000     0.424750000000     0.224650000000     0          
O        O      0.125400000000     0.412750000000     0.207950000000     0          
O        O      0.164950000000     0.333950000000     0.215750000000     0          
O        O      0.063400000000     0.446050000000     0.190650000000     0          
O        O      0.113950000000     0.006150000000     0.188050000000     0          
O        O      0.047600000000     0.350250000000     0.190250000000     0          
O        O      0.002450000000     0.416400000000     0.161650000000     0          
O        O      0.103800000000     0.298450000000     0.198700000000     0          
O        O      0.046600000000     0.257300000000     0.167850000000     0          
O        O      0.154950000000     0.238900000000     0.198700000000     0          
O        O      0.440350000000     0.440500000000     0.161950000000     0          
O        O      0.459800000000     0.346100000000     0.170550000000     0          
O        O      0.378050000000     0.413350000000     0.160250000000     0          
O        O      0.342250000000     0.331300000000     0.147250000000     0          
O        O      0.312250000000     0.419950000000     0.144850000000     0          
O        O      0.403350000000     0.296050000000     0.151350000000     0          
T        Si     0.294150000000     0.466400000000     0.017050000000     0          
T        Si     0.344150000000     0.389800000000     0.058100000000     0          
T        Si     0.403950000000     0.457900000000     0.045000000000     0          
T        Si     0.465550000000     0.394900000000     0.075450000000     0          
T        Si     0.442850000000     0.289600000000     0.052650000000     0          
T        Si     0.365300000000     0.286600000000     0.036550000000     0          
T        Si     0.041150000000     0.396100000000     0.093000000000     0          
T        Si     0.102100000000     0.456850000000     0.089900000000     0          
T        Si     0.163100000000     0.389200000000     0.123700000000     0          
T        Si     0.141200000000     0.284100000000     0.100250000000     0          
T        Si     0.064750000000     0.289750000000     0.078200000000     0          
T        Si     0.214800000000     0.472300000000     0.119200000000     0          
T        Si     0.160900000000     0.391350000000     0.202800000000     0          
T        Si     0.101400000000     0.460600000000     0.208500000000     0          
T        Si     0.041650000000     0.401900000000     0.169100000000     0          
T        Si     0.064150000000     0.295350000000     0.197350000000     0          
T        Si     0.141750000000     0.285550000000     0.217600000000     0          
T        Si     0.464100000000     0.397850000000     0.151300000000     0          
T        Si     0.403350000000     0.460300000000     0.163200000000     0          
T        Si     0.344250000000     0.389800000000     0.137600000000     0          
T        Si     0.365200000000     0.281500000000     0.152100000000     0          
T        Si     0.441950000000     0.292250000000     0.171200000000     0          
T        Si     0.292850000000     0.472250000000     0.134750000000     0          
O        O      0.311150000000     0.082800000000     0.286750000000     0          
O        O      0.303350000000     0.485200000000     0.291150000000     0          
O        O      0.254100000000     0.040650000000     0.257050000000     0          
O        O      0.308450000000     0.024950000000     0.233250000000     0          
O        O      0.377250000000     0.084200000000     0.300300000000     0          
O        O      0.343150000000     0.168500000000     0.297200000000     0          
O        O      0.344950000000     0.105400000000     0.348000000000     0          
O        O      0.440600000000     0.067400000000     0.300850000000     0          
O        O      0.393450000000     0.021150000000     0.256700000000     0          
O        O      0.404650000000     0.496850000000     0.321550000000     0          
O        O      0.464850000000     0.159650000000     0.308050000000     0          
O        O      0.003250000000     0.083350000000     0.332600000000     0          
O        O      0.453700000000     0.110650000000     0.360900000000     0          
O        O      0.403750000000     0.195450000000     0.292500000000     0          
O        O      0.449400000000     0.242600000000     0.337150000000     0          
O        O      0.452700000000     0.243250000000     0.272700000000     0          
O        O      0.352300000000     0.227150000000     0.247050000000     0          
O        O      0.362450000000     0.261950000000     0.309550000000     0          
O        O      0.065650000000     0.068150000000     0.327000000000     0          
O        O      0.053350000000     0.104500000000     0.383700000000     0          
O        O      0.042650000000     0.160450000000     0.329250000000     0          
O        O      0.129050000000     0.087350000000     0.351550000000     0          
O        O      0.101050000000     0.007100000000     0.371700000000     0          
O        O      0.165400000000     0.168850000000     0.363100000000     0          
O        O      0.194750000000     0.080150000000     0.366150000000     0          
O        O      0.162500000000     0.106550000000     0.413350000000     0          
O        O      0.103900000000     0.195650000000     0.334750000000     0          
O        O      0.140100000000     0.251900000000     0.382100000000     0          
O        O      0.058800000000     0.249550000000     0.356650000000     0          
O        O      0.211300000000     0.499200000000     0.403500000000     0          
O        O      0.253700000000     0.038650000000     0.369700000000     0          
O        O      0.193400000000     0.473800000000     0.459950000000     0          
O        O      0.190800000000     0.075250000000     0.474650000000     0          
O        O      0.125400000000     0.087250000000     0.457950000000     0          
O        O      0.164950000000     0.166050000000     0.465750000000     0          
O        O      0.063400000000     0.053950000000     0.440650000000     0          
O        O      0.113950000000     0.493850000000     0.438050000000     0          
O        O      0.047600000000     0.149750000000     0.440250000000     0          
O        O      0.002450000000     0.083600000000     0.411650000000     0          
O        O      0.103800000000     0.201550000000     0.448700000000     0          
O        O      0.046600000000     0.242700000000     0.417850000000     0          
O        O      0.154950000000     0.261100000000     0.448700000000     0          
O        O      0.440350000000     0.059500000000     0.411950000000     0          
O        O      0.459800000000     0.153900000000     0.420550000000     0          
O        O      0.378050000000     0.086650000000     0.410250000000     0          
O        O      0.342250000000     0.168700000000     0.397250000000     0          
O        O      0.312250000000     0.080050000000     0.394850000000     0          
O        O      0.403350000000     0.203950000000     0.401350000000     0          
T        Si     0.294150000000     0.033600000000     0.267050000000     0          
T        Si     0.344150000000     0.110200000000     0.308100000000     0          
T        Si     0.403950000000     0.042100000000     0.295000000000     0          
T        Si     0.465550000000     0.105100000000     0.325450000000     0          
T        Si     0.442850000000     0.210400000000     0.302650000000     0          
T        Si     0.365300000000     0.213400000000     0.286550000000     0          
T        Si     0.041150000000     0.103900000000     0.343000000000     0          
T        Si     0.102100000000     0.043150000000     0.339900000000     0          
T        Si     0.163100000000     0.110800000000     0.373700000000     0          
T        Si     0.141200000000     0.215900000000     0.350250000000     0          
T        Si     0.064750000000     0.210250000000     0.328200000000     0          
T        Si     0.214800000000     0.027700000000     0.369200000000     0          
T        Si     0.160900000000     0.108650000000     0.452800000000     0          
T        Si     0.101400000000     0.039400000000     0.458500000000     0          
T        Si     0.041650000000     0.098100000000     0.419100000000     0          
T        Si     0.064150000000     0.204650000000     0.447350000000     0          
T        Si     0.141750000000     0.214450000000     0.467600000000     0          
T        Si     0.464100000000     0.102150000000     0.401300000000     0          
T        Si     0.403350000000     0.039700000000     0.413200000000     0          
T        Si     0.344250000000     0.110200000000     0.387600000000     0          
T        Si     0.365200000000     0.218500000000     0.402100000000     0          
T        Si     0.441950000000     0.207750000000     0.421200000000     0          
T        Si     0.292850000000     0.027750000000     0.384750000000     0          
O        O      0.061150000000     0.167200000000     0.536750000000     0          
O        O      0.053350000000     0.264800000000     0.541150000000     0          
O        O      0.004100000000     0.209350000000     0.507050000000     0          
O        O      0.058450000000     0.225050000000     0.983250000000     0          
O        O      0.127250000000     0.165800000000     0.550300000000     0          
O        O      0.093150000000     0.081500000000     0.547200000000     0          
O        O      0.094950000000     0.144600000000     0.598000000000     0          
O        O      0.190600000000     0.182600000000     0.550850000000     0          
O        O      0.143450000000     0.228850000000     0.506700000000     0          
O        O      0.154650000000     0.253150000000     0.571550000000     0          
O        O      0.214850000000     0.090350000000     0.558050000000     0          
O        O      0.253250000000     0.166650000000     0.582600000000     0          
O        O      0.203700000000     0.139350000000     0.610900000000     0          
O        O      0.153750000000     0.054550000000     0.542500000000     0          
O        O      0.199400000000     0.007400000000     0.587150000000     0          
O        O      0.202700000000     0.006750000000     0.522700000000     0          
O        O      0.102300000000     0.022850000000     0.997050000000     0          
O        O      0.112450000000     0.488050000000     0.559550000000     0          
O        O      0.315650000000     0.181850000000     0.577000000000     0          
O        O      0.303350000000     0.145500000000     0.633700000000     0          
O        O      0.292650000000     0.089550000000     0.579250000000     0          
O        O      0.379050000000     0.162650000000     0.601550000000     0          
O        O      0.351050000000     0.242900000000     0.621700000000     0          
O        O      0.415400000000     0.081150000000     0.613100000000     0          
O        O      0.444750000000     0.169850000000     0.616150000000     0          
O        O      0.412500000000     0.143450000000     0.663350000000     0          
O        O      0.353900000000     0.054350000000     0.584750000000     0          
O        O      0.390100000000     0.498100000000     0.632100000000     0          
O        O      0.308800000000     0.000450000000     0.606650000000     0          
O        O      0.461300000000     0.250800000000     0.653500000000     0          
O        O      0.003700000000     0.211350000000     0.619700000000     0          
O        O      0.443400000000     0.276200000000     0.709950000000     0          
O        O      0.440800000000     0.174750000000     0.724650000000     0          
O        O      0.375400000000     0.162750000000     0.707950000000     0          
O        O      0.414950000000     0.083950000000     0.715750000000     0          
O        O      0.313400000000     0.196050000000     0.690650000000     0          
O        O      0.363950000000     0.256150000000     0.688050000000     0          
O        O      0.297600000000     0.100250000000     0.690250000000     0          
O        O      0.252450000000     0.166400000000     0.661650000000     0          
O        O      0.353800000000     0.048450000000     0.698700000000     0          
O        O      0.296600000000     0.007300000000     0.667850000000     0          
O        O      0.404950000000     0.488900000000     0.698700000000     0          
O        O      0.190350000000     0.190500000000     0.661950000000     0          
O        O      0.209800000000     0.096100000000     0.670550000000     0          
O        O      0.128050000000     0.163350000000     0.660250000000     0          
O        O      0.092250000000     0.081300000000     0.647250000000     0          
O        O      0.062250000000     0.169950000000     0.644850000000     0          
O        O      0.153350000000     0.046050000000     0.651350000000     0          
T        Si     0.044150000000     0.216400000000     0.517050000000     0          
T        Si     0.094150000000     0.139800000000     0.558100000000     0          
T        Si     0.153950000000     0.207900000000     0.545000000000     0          
T        Si     0.215550000000     0.144900000000     0.575450000000     0          
T        Si     0.192850000000     0.039600000000     0.552650000000     0          
T        Si     0.115300000000     0.036600000000     0.536550000000     0          
T        Si     0.291150000000     0.146100000000     0.593000000000     0          
T        Si     0.352100000000     0.206850000000     0.589900000000     0          
T        Si     0.413100000000     0.139200000000     0.623700000000     0          
T        Si     0.391200000000     0.034100000000     0.600250000000     0          
T        Si     0.314750000000     0.039750000000     0.578200000000     0          
T        Si     0.464800000000     0.222300000000     0.619200000000     0          
T        Si     0.410900000000     0.141350000000     0.702800000000     0          
T        Si     0.351400000000     0.210600000000     0.708500000000     0          
T        Si     0.291650000000     0.151900000000     0.669100000000     0          
T        Si     0.314150000000     0.045350000000     0.697350000000     0          
T        Si     0.391750000000     0.035550000000     0.717600000000     0          
T        Si     0.214100000000     0.147850000000     0.651300000000     0          
T        Si     0.153350000000     0.210300000000     0.663200000000     0          
T        Si     0.094250000000     0.139800000000     0.637600000000     0          
T        Si     0.115200000000     0.031500000000     0.652100000000     0          
T        Si     0.191950000000     0.042250000000     0.671200000000     0          
T        Si     0.042850000000     0.222250000000     0.634750000000     0          
O        O      0.061150000000     0.332800000000     0.786750000000     0          
O        O      0.053350000000     0.235200000000     0.791150000000     0          
O        O      0.004100000000     0.290650000000     0.757050000000     0          
O        O      0.058450000000     0.274950000000     0.733250000000     0          
O        O      0.127250000000     0.334200000000     0.800300000000     0          
O        O      0.093150000000     0.418500000000     0.797200000000     0          
O        O      0.094950000000     0.355400000000     0.848000000000     0          
O        O      0.190600000000     0.317400000000     0.800850000000     0          
O        O      0.143450000000     0.271150000000     0.756700000000     0          
O        O      0.154650000000     0.246850000000     0.821550000000     0          
O        O      0.214850000000     0.409650000000     0.808050000000     0          
O        O      0.253250000000     0.333350000000     0.832600000000     0          
O        O      0.203700000000     0.360650000000     0.860900000000     0          
O        O      0.153750000000     0.445450000000     0.792500000000     0          
O        O      0.199400000000     0.492600000000     0.837150000000     0          
O        O      0.202700000000     0.493250000000     0.772700000000     0          
O        O      0.102300000000     0.477150000000     0.747050000000     0          
O        O      0.112450000000     0.011950000000     0.809550000000     0          
O        O      0.315650000000     0.318150000000     0.827000000000     0          
O        O      0.303350000000     0.354500000000     0.883700000000     0          
O        O      0.292650000000     0.410450000000     0.829250000000     0          
O        O      0.379050000000     0.337350000000     0.851550000000     0          
O        O      0.351050000000     0.257100000000     0.871700000000     0          
O        O      0.415400000000     0.418850000000     0.863100000000     0          
O        O      0.444750000000     0.330150000000     0.866150000000     0          
O        O      0.412500000000     0.356550000000     0.913350000000     0          
O        O      0.353900000000     0.445650000000     0.834750000000     0          
O        O      0.390100000000     0.001900000000     0.882100000000     0          
O        O      0.308800000000     0.499550000000     0.856650000000     0          
O        O      0.461300000000     0.249200000000     0.903500000000     0          
O        O      0.003700000000     0.288650000000     0.869700000000     0          
O        O      0.443400000000     0.223800000000     0.959950000000     0          
O        O      0.440800000000     0.325250000000     0.974650000000     0          
O        O      0.375400000000     0.337250000000     0.957950000000     0          
O        O      0.414950000000     0.416050000000     0.965750000000     0          
O        O      0.313400000000     0.303950000000     0.940650000000     0          
O        O      0.363950000000     0.243850000000     0.938050000000     0          
O        O      0.297600000000     0.399750000000     0.940250000000     0          
O        O      0.252450000000     0.333600000000     0.911650000000     0          
O        O      0.353800000000     0.451550000000     0.948700000000     0          
O        O      0.296600000000     0.492700000000     0.917850000000     0          
O        O      0.404950000000     0.011100000000     0.948700000000     0          
O        O      0.190350000000     0.309500000000     0.911950000000     0          
O        O      0.209800000000     0.403900000000     0.920550000000     0          
O        O      0.128050000000     0.336650000000     0.910250000000     0          
O        O      0.092250000000     0.418700000000     0.897250000000     0          
O        O      0.062250000000     0.330050000000     0.894850000000     0          
O        O      0.153350000000     0.453950000000     0.901350000000     0          
T        Si     0.044150000000     0.283600000000     0.767050000000     0          
T        Si     0.094150000000     0.360200000000     0.808100000000     0          
T        Si     0.153950000000     0.292100000000     0.795000000000     0          
T        Si     0.215550000000     0.355100000000     0.825450000000     0          
T        Si     0.192850000000     0.460400000000     0.802650000000     0          
T        Si     0.115300000000     0.463400000000     0.786550000000     0          
T        Si     0.291150000000     0.353900000000     0.843000000000     0          
T        Si     0.352100000000     0.293150000000     0.839900000000     0          
T        Si     0.413100000000     0.360800000000     0.873700000000     0          
T        Si     0.391200000000     0.465900000000     0.850250000000     0          
T        Si     0.314750000000     0.460250000000     0.828200000000     0          
T        Si     0.464800000000     0.277700000000     0.869200000000     0          
T        Si     0.410900000000     0.358650000000     0.952800000000     0          
T        Si     0.351400000000     0.289400000000     0.958500000000     0          
T        Si     0.291650000000     0.348100000000     0.919100000000     0          
T        Si     0.314150000000     0.454650000000     0.947350000000     0          
T        Si     0.391750000000     0.464450000000     0.967600000000     0          
T        Si     0.214100000000     0.352150000000     0.901300000000     0          
T        Si     0.153350000000     0.289700000000     0.913200000000     0          
T        Si     0.094250000000     0.360200000000     0.887600000000     0          
T        Si     0.115200000000     0.468500000000     0.902100000000     0          
T        Si     0.191950000000     0.457750000000     0.921200000000     0          
T        Si     0.042850000000     0.277750000000     0.884750000000     0          
O        O      0.311150000000     0.417200000000     0.536750000000     0          
O        O      0.303350000000     0.014800000000     0.541150000000     0          
O        O      0.254100000000     0.459350000000     0.507050000000     0          
O        O      0.308450000000     0.475050000000     0.983250000000     0          
O        O      0.377250000000     0.415800000000     0.550300000000     0          
O        O      0.343150000000     0.331500000000     0.547200000000     0          
O        O      0.344950000000     0.394600000000     0.598000000000     0          
O        O      0.440600000000     0.432600000000     0.550850000000     0          
O        O      0.393450000000     0.478850000000     0.506700000000     0          
O        O      0.404650000000     0.003150000000     0.571550000000     0          
O        O      0.464850000000     0.340350000000     0.558050000000     0          
O        O      0.003250000000     0.416650000000     0.582600000000     0          
O        O      0.453700000000     0.389350000000     0.610900000000     0          
O        O      0.403750000000     0.304550000000     0.542500000000     0          
O        O      0.449400000000     0.257400000000     0.587150000000     0          
O        O      0.452700000000     0.256750000000     0.522700000000     0          
O        O      0.352300000000     0.272850000000     0.997050000000     0          
O        O      0.362450000000     0.238050000000     0.559550000000     0          
O        O      0.065650000000     0.431850000000     0.577000000000     0          
O        O      0.053350000000     0.395500000000     0.633700000000     0          
O        O      0.042650000000     0.339550000000     0.579250000000     0          
O        O      0.129050000000     0.412650000000     0.601550000000     0          
O        O      0.101050000000     0.492900000000     0.621700000000     0          
O        O      0.165400000000     0.331150000000     0.613100000000     0          
O        O      0.194750000000     0.419850000000     0.616150000000     0          
O        O      0.162500000000     0.393450000000     0.663350000000     0          
O        O      0.103900000000     0.304350000000     0.584750000000     0          
O        O      0.140100000000     0.248100000000     0.632100000000     0          
O        O      0.058800000000     0.250450000000     0.606650000000     0          
O        O      0.211300000000     0.000800000000     0.653500000000     0          
O        O      0.253700000000     0.461350000000     0.619700000000     0          
O        O      0.193400000000     0.026200000000     0.709950000000     0          
O        O      0.190800000000     0.424750000000     0.724650000000     0          
O        O      0.125400000000     0.412750000000     0.707950000000     0          
O        O      0.164950000000     0.333950000000     0.715750000000     0          
O        O      0.063400000000     0.446050000000     0.690650000000     0          
O        O      0.113950000000     0.006150000000     0.688050000000     0          
O        O      0.047600000000     0.350250000000     0.690250000000     0          
O        O      0.002450000000     0.416400000000     0.661650000000     0          
O        O      0.103800000000     0.298450000000     0.698700000000     0          
O        O      0.046600000000     0.257300000000     0.667850000000     0          
O        O      0.154950000000     0.238900000000     0.698700000000     0          
O        O      0.440350000000     0.440500000000     0.661950000000     0          
O        O      0.459800000000     0.346100000000     0.670550000000     0          
O        O      0.378050000000     0.413350000000     0.660250000000     0          
O        O      0.342250000000     0.331300000000     0.647250000000     0          
O        O      0.312250000000     0.419950000000     0.644850000000     0          
O        O      0.403350000000     0.296050000000     0.651350000000     0          
T        Si     0.294150000000     0.466400000000     0.517050000000     0          
T        Si     0.344150000000     0.389800000000     0.558100000000     0          
T        Si     0.403950000000     0.457900000000     0.545000000000     0          
T        Si     0.465550000000     0.394900000000     0.575450000000     0          
T        Si     0.442850000000     0.289600000000     0.552650000000     0          
T        Si     0.365300000000     0.286600000000     0.536550000000     0          
T        Si     0.041150000000     0.396100000000     0.593000000000     0          
T        Si     0.102100000000     0.456850000000     0.589900000000     0          
T        Si     0.163100000000     0.389200000000     0.623700000000     0          
T        Si     0.141200000000     0.284100000000     0.600250000000     0          
T        Si     0.064750000000     0.289750000000     0.578200000000     0          
T        Si     0.214800000000     0.472300000000     0.619200000000     0          
T        Si     0.160900000000     0.391350000000     0.702800000000     0          
T        Si     0.101400000000     0.460600000000     0.708500000000     0          
T        Si     0.041650000000     0.401900000000     0.669100000000     0          
T        Si     0.064150000000     0.295350000000     0.697350000000     0          
T        Si     0.141750000000     0.285550000000     0.717600000000     0          
T        Si     0.464100000000     0.397850000000     0.651300000000     0          
T        Si     0.403350000000     0.460300000000     0.663200000000     0          
T        Si     0.344250000000     0.389800000000     0.637600000000     0          
T        Si     0.365200000000     0.281500000000     0.652100000000     0          
T        Si     0.441950000000     0.292250000000     0.671200000000     0          
T        Si     0.292850000000     0.472250000000     0.634750000000     0          
O        O      0.311150000000     0.082800000000     0.786750000000     0          
O        O      0.303350000000     0.485200000000     0.791150000000     0          
O        O      0.254100000000     0.040650000000     0.757050000000     0          
O        O      0.308450000000     0.024950000000     0.733250000000     0          
O        O      0.377250000000     0.084200000000     0.800300000000     0          
O        O      0.343150000000     0.168500000000     0.797200000000     0          
O        O      0.344950000000     0.105400000000     0.848000000000     0          
O        O      0.440600000000     0.067400000000     0.800850000000     0          
O        O      0.393450000000     0.021150000000     0.756700000000     0          
O        O      0.404650000000     0.496850000000     0.821550000000     0          
O        O      0.464850000000     0.159650000000     0.808050000000     0          
O        O      0.003250000000     0.083350000000     0.832600000000     0          
O        O      0.453700000000     0.110650000000     0.860900000000     0          
O        O      0.403750000000     0.195450000000     0.792500000000     0          
O        O      0.449400000000     0.242600000000     0.837150000000     0          
O        O      0.452700000000     0.243250000000     0.772700000000     0          
O        O      0.352300000000     0.227150000000     0.747050000000     0          
O        O      0.362450000000     0.261950000000     0.809550000000     0          
O        O      0.065650000000     0.068150000000     0.827000000000     0          
O        O      0.053350000000     0.104500000000     0.883700000000     0          
O        O      0.042650000000     0.160450000000     0.829250000000     0          
O        O      0.129050000000     0.087350000000     0.851550000000     0          
O        O      0.101050000000     0.007100000000     0.871700000000     0          
O        O      0.165400000000     0.168850000000     0.863100000000     0          
O        O      0.194750000000     0.080150000000     0.866150000000     0          
O        O      0.162500000000     0.106550000000     0.913350000000     0          
O        O      0.103900000000     0.195650000000     0.834750000000     0          
O        O      0.140100000000     0.251900000000     0.882100000000     0          
O        O      0.058800000000     0.249550000000     0.856650000000     0          
O        O      0.211300000000     0.499200000000     0.903500000000     0          
O        O      0.253700000000     0.038650000000     0.869700000000     0          
O        O      0.193400000000     0.473800000000     0.959950000000     0          
O        O      0.190800000000     0.075250000000     0.974650000000     0          
O        O      0.125400000000     0.087250000000     0.957950000000     0          
O        O      0.164950000000     0.166050000000     0.965750000000     0          
O        O      0.063400000000     0.053950000000     0.940650000000     0          
O        O      0.113950000000     0.493850000000     0.938050000000     0          
O        O      0.047600000000     0.149750000000     0.940250000000     0          
O        O      0.002450000000     0.083600000000     0.911650000000     0          
O        O      0.103800000000     0.201550000000     0.948700000000     0          
O        O      0.046600000000     0.242700000000     0.917850000000     0          
O        O      0.154950000000     0.261100000000     0.948700000000     0          
O        O      0.440350000000     0.059500000000     0.911950000000     0          
O        O      0.459800000000     0.153900000000     0.920550000000     0          
O        O      0.378050000000     0.086650000000     0.910250000000     0          
O        O      0.342250000000     0.168700000000     0.897250000000     0          
O        O      0.312250000000     0.080050000000     0.894850000000     0          
O        O      0.403350000000     0.203950000000     0.901350000000     0          
T        Si     0.294150000000     0.033600000000     0.767050000000     0          
T        Si     0.344150000000     0.110200000000     0.808100000000     0          
T        Si     0.403950000000     0.042100000000     0.795000000000     0          
T        Si     0.465550000000     0.105100000000     0.825450000000     0          
T        Si     0.442850000000     0.210400000000     0.802650000000     0          
T        Si     0.365300000000     0.213400000000     0.786550000000     0          
T        Si     0.041150000000     0.103900000000     0.843000000000     0          
T        Si     0.102100000000     0.043150000000     0.839900000000     0          
T        Si     0.163100000000     0.110800000000     0.873700000000     0          
T        Si     0.141200000000     0.215900000000     0.850250000000     0          
T        Si     0.064750000000     0.210250000000     0.828200000000     0          
T        Si     0.214800000000     0.027700000000     0.869200000000     0          
T        Si     0.160900000000     0.108650000000     0.952800000000     0          
T        Si     0.101400000000     0.039400000000     0.958500000000     0          
T        Si     0.041650000000     0.098100000000     0.919100000000     0          
T        Si     0.064150000000     0.204650000000     0.947350000000     0          
T        Si     0.141750000000     0.214450000000     0.967600000000     0          
T        Si     0.464100000000     0.102150000000     0.901300000000     0          
T        Si     0.403350000000     0.039700000000     0.913200000000     0          
T        Si     0.344250000000     0.110200000000     0.887600000000     0          
T        Si     0.365200000000     0.218500000000     0.902100000000     0          
T        Si     0.441950000000     0.207750000000     0.921200000000     0          
T        Si     0.292850000000     0.027750000000     0.884750000000     0          
O        O      0.061150000000     0.667200000000     0.036750000000     0          
O        O      0.053350000000     0.764800000000     0.041150000000     0          
O        O      0.004100000000     0.709350000000     0.007050000000     0          
O        O      0.058450000000     0.725050000000     0.483250000000     0          
O        O      0.127250000000     0.665800000000     0.050300000000     0          
O        O      0.093150000000     0.581500000000     0.047200000000     0          
O        O      0.094950000000     0.644600000000     0.098000000000     0          
O        O      0.190600000000     0.682600000000     0.050850000000     0          
O        O      0.143450000000     0.728850000000     0.006700000000     0          
O        O      0.154650000000     0.753150000000     0.071550000000     0          
O        O      0.214850000000     0.590350000000     0.058050000000     0          
O        O      0.253250000000     0.666650000000     0.082600000000     0          
O        O      0.203700000000     0.639350000000     0.110900000000     0          
O        O      0.153750000000     0.554550000000     0.042500000000     0          
O        O      0.199400000000     0.507400000000     0.087150000000     0          
O        O      0.202700000000     0.506750000000     0.022700000000     0          
O        O      0.102300000000     0.522850000000     0.497050000000     0          
O        O      0.112450000000     0.988050000000     0.059550000000     0          
O        O      0.315650000000     0.681850000000     0.077000000000     0          
O        O      0.303350000000     0.645500000000     0.133700000000     0          
O        O      0.292650000000     0.589550000000     0.079250000000     0          
O        O      0.379050000000     0.662650000000     0.101550000000     0          
O        O      0.351050000000     0.742900000000     0.121700000000     0          
O        O      0.415400000000     0.581150000000     0.113100000000     0          
O        O      0.444750000000     0.669850000000     0.116150000000     0          
O        O      0.412500000000     0.643450000000     0.163350000000     0          
O        O      0.353900000000     0.554350000000     0.084750000000     0          
O        O      0.390100000000     0.998100000000     0.132100000000     0          
O        O      0.308800000000     0.500450000000     0.106650000000     0          
O        O      0.461300000000     0.750800000000     0.153500000000     0          
O        O      0.003700000000     0.711350000000     0.119700000000     0          
O        O      0.443400000000     0.776200000000     0.209950000000     0          
O        O      0.440800000000     0.674750000000     0.224650000000     0          
O        O      0.375400000000     0.662750000000     0.207950000000     0          
O        O      0.414950000000     0.583950000000     0.215750000000     0          
O        O      0.313400000000     0.696050000000     0.190650000000     0          
O        O      0.363950000000     0.756150000000     0.188050000000     0          
O        O      0.297600000000     0.600250000000     0.190250000000     0          
O        O      0.252450000000     0.666400000000     0.161650000000     0          
O        O      0.353800000000     0.548450000000     0.198700000000     0          
O        O      0.296600000000     0.507300000000     0.167850000000     0          
O        O      0.404950000000     0.988900000000     0.198700000000     0          
O        O      0.190350000000     0.690500000000     0.161950000000     0          
O        O      0.209800000000     0.596100000000     0.170550000000     0          
O        O      0.128050000000     0.663350000000     0.160250000000     0          
O        O      0.092250000000     0.581300000000     0.147250000000     0          
O        O      0.062250000000     0.669950000000     0.144850000000     0          
O        O      0.153350000000     0.546050000000     0.151350000000     0          
T        Si     0.044150000000     0.716400000000     0.017050000000     0          
T        Si     0.094150000000     0.639800000000     0.058100000000     0          
T        Si     0.153950000000     0.707900000000     0.045000000000     0          
T        Si     0.215550000000     0.644900000000     0.075450000000     0          
T        Si     0.192850000000     0.539600000000     0.052650000000     0          
T        Si     0.115300000000     0.536600000000     0.036550000000     0          
T        Si     0.291150000000     0.646100000000     0.093000000000     0          
T        Si     0.352100000000     0.706850000000     0.089900000000     0          
T        Si     0.413100000000     0.639200000000     0.123700000000     0          
T        Si     0.391200000000     0.534100000000     0.100250000000     0          
T        Si     0.314750000000     0.539750000000     0.078200000000     0          
T        Si     0.464800000000     0.722300000000     0.119200000000     0          
T        Si     0.410900000000     0.641350000000     0.202800000000     0          
T        Si     0.351400000000     0.710600000000     0.208500000000     0          
T        Si     0.291650000000     0.651900000000     0.169100000000     0          
T        Si     0.314150000000     0.545350000000     0.197350000000     0          
T        Si     0.391750000000     0.535550000000     0.217600000000     0          
T        Si     0.214100000000     0.647850000000     0.151300000000     0          
T        Si     0.153350000000     0.710300000000     0.163200000000     0          
T        Si     0.094250000000     0.639800000000     0.137600000000     0          
T        Si     0.115200000000     0.531500000000     0.152100000000     0          
T        Si     0.191950000000     0.542250000000     0.171200000000     0          
T        Si     0.042850000000     0.722250000000     0.134750000000     0          
O        O      0.061150000000     0.832800000000     0.286750000000     0          
O        O      0.053350000000     0.735200000000     0.291150000000     0          
O        O      0.004100000000     0.790650000000     0.257050000000     0          
O        O      0.058450000000     0.774950000000     0.233250000000     0          
O        O      0.127250000000     0.834200000000     0.300300000000     0          
O        O      0.093150000000     0.918500000000     0.297200000000     0          
O        O      0.094950000000     0.855400000000     0.348000000000     0          
O        O      0.190600000000     0.817400000000     0.300850000000     0          
O        O      0.143450000000     0.771150000000     0.256700000000     0          
O        O      0.154650000000     0.746850000000     0.321550000000     0          
O        O      0.214850000000     0.909650000000     0.308050000000     0          
O        O      0.253250000000     0.833350000000     0.332600000000     0          
O        O      0.203700000000     0.860650000000     0.360900000000     0          
O        O      0.153750000000     0.945450000000     0.292500000000     0          
O        O      0.199400000000     0.992600000000     0.337150000000     0          
O        O      0.202700000000     0.993250000000     0.272700000000     0          
O        O      0.102300000000     0.977150000000     0.247050000000     0          
O        O      0.112450000000     0.511950000000     0.309550000000     0          
O        O      0.315650000000     0.818150000000     0.327000000000     0          
O        O      0.303350000000     0.854500000000     0.383700000000     0          
O        O      0.292650000000     0.910450000000     0.329250000000     0          
O        O      0.379050000000     0.837350000000     0.351550000000     0          
O        O      0.351050000000     0.757100000000     0.371700000000     0          
O        O      0.415400000000     0.918850000000     0.363100000000     0          
O        O      0.444750000000     0.830150000000     0.366150000000     0          
O        O      0.412500000000     0.856550000000     0.413350000000     0          
O        O      0.353900000000     0.945650000000     0.334750000000     0          
O        O      0.390100000000     0.501900000000     0.382100000000     0          
O        O      0.308800000000     0.999550000000     0.356650000000     0          
O        O      0.461300000000     0.749200000000     0.403500000000     0          
O        O      0.003700000000     0.788650000000     0.369700000000     0          
O        O      0.443400000000     0.723800000000     0.459950000000     0          
O        O      0.440800000000     0.825250000000     0.474650000000     0          
O        O      0.375400000000     0.837250000000     0.457950000000     0          
O        O      0.414950000000     0.916050000000     0.465750000000     0          
O        O      0.313400000000     0.803950000000     0.440650000000     0          
O        O      0.363950000000     0.743850000000     0.438050000000     0          
O        O      0.297600000000     0.899750000000     0.440250000000     0          
O        O      0.252450000000     0.833600000000     0.411650000000     0          
O        O      0.353800000000     0.951550000000     0.448700000000     0          
O        O      0.296600000000     0.992700000000     0.417850000000     0          
O        O      0.404950000000     0.511100000000     0.448700000000     0          
O        O      0.190350000000     0.809500000000     0.411950000000     0          
O        O      0.209800000000     0.903900000000     0.420550000000     0          
O        O      0.128050000000     0.836650000000     0.410250000000     0          
O        O      0.092250000000     0.918700000000     0.397250000000     0          
O        O      0.062250000000     0.830050000000     0.394850000000     0          
O        O      0.153350000000     0.953950000000     0.401350000000     0          
T        Si     0.044150000000     0.783600000000     0.267050000000     0          
T        Si     0.094150000000     0.860200000000     0.308100000000     0          
T        Si     0.153950000000     0.792100000000     0.295000000000     0          
T        Si     0.215550000000     0.855100000000     0.325450000000     0          
T        Si     0.192850000000     0.960400000000     0.302650000000     0          
T        Si     0.115300000000     0.963400000000     0.286550000000     0          
T        Si     0.291150000000     0.853900000000     0.343000000000     0          
T        Si     0.352100000000     0.793150000000     0.339900000000     0          
T        Si     0.413100000000     0.860800000000     0.373700000000     0          
T        Si     0.391200000000     0.965900000000     0.350250000000     0          
T        Si     0.314750000000     0.960250000000     0.328200000000     0          
T        Si     0.464800000000     0.777700000000     0.369200000000     0          
T        Si     0.410900000000     0.858650000000     0.452800000000     0          
T        Si     0.351400000000     0.789400000000     0.458500000000     0          
T        Si     0.291650000000     0.848100000000     0.419100000000     0          
T        Si     0.314150000000     0.954650000000     0.447350000000     0          
T        Si     0.391750000000     0.964450000000     0.467600000000     0          
T        Si     0.214100000000     0.852150000000     0.401300000000     0          
T        Si     0.153350000000     0.789700000000     0.413200000000     0          
T        Si     0.094250000000     0.860200000000     0.387600000000     0          
T        Si     0.115200000000     0.968500000000     0.402100000000     0          
T        Si     0.191950000000     0.957750000000     0.421200000000     0          
T        Si     0.042850000000     0.777750000000     0.384750000000     0          
O        O      0.311150000000     0.917200000000     0.036750000000     0          
O        O      0.303350000000     0.514800000000     0.041150000000     0          
O        O      0.254100000000     0.959350000000     0.007050000000     0          
O        O      0.308450000000     0.975050000000     0.483250000000     0          
O        O      0.377250000000     0.915800000000     0.050300000000     0          
O        O      0.343150000000     0.831500000000     0.047200000000     0          
O        O      0.344950000000     0.894600000000     0.098000000000     0          
O        O      0.440600000000     0.932600000000     0.050850000000     0          
O        O      0.393450000000     0.978850000000     0.006700000000     0          
O        O      0.404650000000     0.503150000000     0.071550000000     0          
O        O      0.464850000000     0.840350000000     0.058050000000     0          
O        O      0.003250000000     0.916650000000     0.082600000000     0          
O        O      0.453700000000     0.889350000000     0.110900000000     0          
O        O      0.403750000000     0.804550000000     0.042500000000     0          
O        O      0.449400000000     0.757400000000     0.087150000000     0          
O        O      0.452700000000     0.756750000000     0.022700000000     0          
O        O      0.352300000000     0.772850000000     0.497050000000     0          
O        O      0.362450000000     0.738050000000     0.059550000000     0          
O        O      0.065650000000     0.931850000000     0.077000000000     0          
O        O      0.053350000000     0.895500000000     0.133700000000     0          
O        O      0.042650000000     0.839550000000     0.079250000000     0          
O        O      0.129050000000     0.912650000000     0.101550000000     0          
O        O      0.101050000000     0.992900000000     0.121700000000     0          
O        O      0.165400000000     0.831150000000     0.113100000000     0          
O        O      0.194750000000     0.919850000000     0.116150000000     0          
O        O      0.162500000000     0.893450000000     0.163350000000     0          
O        O      0.103900000000     0.804350000000     0.084750000000     0          
O        O      0.140100000000     0.748100000000     0.132100000000     0          
O        O      0.058800000000     0.750450000000     0.106650000000     0          
O        O      0.211300000000     0.500800000000     0.153500000000     0          
O        O      0.253700000000     0.961350000000     0.119700000000     0          
O        O      0.193400000000     0.526200000000     0.209950000000     0          
O        O      0.190800000000     0.924750000000     0.224650000000     0          
O        O      0.125400000000     0.912750000000     0.207950000000     0          
O        O      0.164950000000     0.833950000000     0.215750000000     0          
O        O      0.063400000000     0.946050000000     0.190650000000     0          
O        O      0.113950000000     0.506150000000     0.188050000000     0          
O        O      0.047600000000     0.850250000000     0.190250000000     0          
O        O      0.002450000000     0.916400000000     0.161650000000     0          
O        O      0.103800000000     0.798450000000     0.198700000000     0          
O        O      0.046600000000     0.757300000000     0.167850000000     0          
O        O      0.154950000000     0.738900000000     0.198700000000     0          
O        O      0.440350000000     0.940500000000     0.161950000000     0          
O        O      0.459800000000     0.846100000000     0.170550000000     0          
O        O      0.378050000000     0.913350000000     0.160250000000     0          
O        O      0.342250000000     0.831300000000     0.147250000000     0          
O        O      0.312250000000     0.919950000000     0.144850000000     0          
O        O      0.403350000000     0.796050000000     0.151350000000     0          
T        Si     0.294150000000     0.966400000000     0.017050000000     0          
T        Si     0.344150000000     0.889800000000     0.058100000000     0          
T        Si     0.403950000000     0.957900000000     0.045000000000     0          
T        Si     0.465550000000     0.894900000000     0.075450000000     0          
T        Si     0.442850000000     0.789600000000     0.052650000000     0          
T        Si     0.365300000000     0.786600000000     0.036550000000     0          
T        Si     0.041150000000     0.896100000000     0.093000000000     0          
T        Si     0.102100000000     0.956850000000     0.089900000000     0          
T        Si     0.163100000000     0.889200000000     0.123700000000     0          
T        Si     0.141200000000     0.784100000000     0.100250000000     0          
T        Si     0.064750000000     0.789750000000     0.078200000000     0          
T        Si     0.214800000000     0.972300000000     0.119200000000     0          
T        Si     0.160900000000     0.891350000000     0.202800000000     0          
T        Si     0.101400000000     0.960600000000     0.208500000000     0          
T        Si     0.041650000000     0.901900000000     0.169100000000     0          
T        Si     0.064150000000     0.795350000000     0.197350000000     0          
T        Si     0.141750000000     0.785550000000     0.217600000000     0          
T        Si     0.464100000000     0.897850000000     0.151300000000     0          
T        Si     0.403350000000     0.960300000000     0.163200000000     0          
T        Si     0.344250000000     0.889800000000     0.137600000000     0          
T        Si     0.365200000000     0.781500000000     0.152100000000     0          
T        Si     0.441950000000     0.792250000000     0.171200000000     0          
T        Si     0.292850000000     0.972250000000     0.134750000000     0          
O        O      0.311150000000     0.582800000000     0.286750000000     0          
O        O      0.303350000000     0.985200000000     0.291150000000     0          
O        O      0.254100000000     0.540650000000     0.257050000000     0          
O        O      0.308450000000     0.524950000000     0.233250000000     0          
O        O      0.377250000000     0.584200000000     0.300300000000     0          
O        O      0.343150000000     0.668500000000     0.297200000000     0          
O        O      0.344950000000     0.605400000000     0.348000000000     0          
O        O      0.440600000000     0.567400000000     0.300850000000     0          
O        O      0.393450000000     0.521150000000     0.256700000000     0          
O        O      0.404650000000     0.996850000000     0.321550000000     0          
O        O      0.464850000000     0.659650000000     0.308050000000     0          
O        O      0.003250000000     0.583350000000     0.332600000000     0          
O        O      0.453700000000     0.610650000000     0.360900000000     0          
O        O      0.403750000000     0.695450000000     0.292500000000     0          
O        O      0.449400000000     0.742600000000     0.337150000000     0          
O        O      0.452700000000     0.743250000000     0.272700000000     0          
O        O      0.352300000000     0.727150000000     0.247050000000     0          
O        O      0.362450000000     0.761950000000     0.309550000000     0          
O        O      0.065650000000     0.568150000000     0.327000000000     0          
O        O      0.053350000000     0.604500000000     0.383700000000     0          
O        O      0.042650000000     0.660450000000     0.329250000000     0          
O        O      0.129050000000     0.587350000000     0.351550000000     0          
O        O      0.101050000000     0.507100000000     0.371700000000     0          
O        O      0.165400000000     0.668850000000     0.363100000000     0          
O        O      0.194750000000     0.580150000000     0.366150000000     0          
O        O      0.162500000000     0.606550000000     0.413350000000     0          
O        O      0.103900000000     0.695650000000     0.334750000000     0          
O        O      0.140100000000     0.751900000000     0.382100000000     0          
O        O      0.058800000000     0.749550000000     0.356650000000     0          
O        O      0.211300000000     0.999200000000     0.403500000000     0          
O        O      0.253700000000     0.538650000000     0.369700000000     0          
O        O      0.193400000000     0.973800000000     0.459950000000     0          
O        O      0.190800000000     0.575250000000     0.474650000000     0          
O        O      0.125400000000     0.587250000000     0.457950000000     0          
O        O      0.164950000000     0.666050000000     0.465750000000     0          
O        O      0.063400000000     0.553950000000     0.440650000000     0          
O        O      0.113950000000     0.993850000000     0.438050000000     0          
O        O      0.047600000000     0.649750000000     0.440250000000     0          
O        O      0.002450000000     0.583600000000     0.411650000000     0          
O        O      0.103800000000     0.701550000000     0.448700000000     0          
O        O      0.046600000000     0.742700000000     0.417850000000     0          
O        O      0.154950000000     0.761100000000     0.448700000000     0          
O        O      0.440350000000     0.559500000000     0.411950000000     0          
O        O      0.459800000000     0.653900000000     0.420550000000     0          
O        O      0.378050000000     0.586650000000     0.410250000000     0          
O        O      0.342250000000     0.668700000000     0.397250000000     0          
O        O      0.312250000000     0.580050000000     0.394850000000     0          
O        O      0.403350000000     0.703950000000     0.401350000000     0          
T        Si     0.294150000000     0.533600000000     0.267050000000     0          
T        Si     0.344150000000     0.610200000000     0.308100000000     0          
T        Si     0.403950000000     0.542100000000     0.295000000000     0          
T        Si     0.465550000000     0.605100000000     0.325450000000     0          
T        Si     0.442850000000     0.710400000000     0.302650000000     0          
T        Si     0.365300000000     0.713400000000     0.286550000000     0          
T        Si     0.041150000000     0.603900000000     0.343000000000     0          
T        Si     0.102100000000     0.543150000000     0.339900000000     0          
T        Si     0.163100000000     0.610800000000     0.373700000000     0          
T        Si     0.141200000000     0.715900000000     0.350250000000     0          
T        Si     0.064750000000     0.710250000000     0.328200000000     0          
T        Si     0.214800000000     0.527700000000     0.369200000000     0          
T        Si     0.160900000000     0.608650000000     0.452800000000     0          
T        Si     0.101400000000     0.539400000000     0.458500000000     0          
T        Si     0.041650000000     0.598100000000     0.419100000000     0          
T        Si     0.064150000000     0.704650000000     0.447350000000     0          
T        Si     0.141750000000     0.714450000000     0.467600000000     0          
T        Si     0.464100000000     0.602150000000     0.401300000000     0          
T        Si     0.403350000000     0.539700000000     0.413200000000     0          
T        Si     0.344250000000     0.610200000000     0.387600000000     0          
T        Si     0.365200000000     0.718500000000     0.402100000000     0          
T        Si     0.441950000000     0.707750000000     0.421200000000     0          
T        Si     0.292850000000     0.527750000000     0.384750000000     0          
O        O      0.061150000000     0.667200000000     0.536750000000     0          
O        O      0.053350000000     0.764800000000     0.541150000000     0          
O        O      0.004100000000     0.709350000000     0.507050000000     0          
O        O      0.058450000000     0.725050000000     0.983250000000     0          
O        O      0.127250000000     0.665800000000     0.550300000000     0          
O        O      0.093150000000     0.581500000000     0.547200000000     0          
O        O      0.094950000000     0.644600000000     0.598000000000     0          
O        O      0.190600000000     0.682600000000     0.550850000000     0          
O        O      0.143450000000     0.728850000000     0.506700000000     0          
O        O      0.154650000000     0.753150000000     0.571550000000     0          
O        O      0.214850000000     0.590350000000     0.558050000000     0          
O        O      0.253250000000     0.666650000000     0.582600000000     0          
O        O      0.203700000000     0.639350000000     0.610900000000     0          
O        O      0.153750000000     0.554550000000     0.542500000000     0          
O        O      0.199400000000     0.507400000000     0.587150000000     0          
O        O      0.202700000000     0.506750000000     0.522700000000     0          
O        O      0.102300000000     0.522850000000     0.997050000000     0          
O        O      0.112450000000     0.988050000000     0.559550000000     0          
O        O      0.315650000000     0.681850000000     0.577000000000     0          
O        O      0.303350000000     0.645500000000     0.633700000000     0          
O        O      0.292650000000     0.589550000000     0.579250000000     0          
O        O      0.379050000000     0.662650000000     0.601550000000     0          
O        O      0.351050000000     0.742900000000     0.621700000000     0          
O        O      0.415400000000     0.581150000000     0.613100000000     0          
O        O      0.444750000000     0.669850000000     0.616150000000     0          
O        O      0.412500000000     0.643450000000     0.663350000000     0          
O        O      0.353900000000     0.554350000000     0.584750000000     0          
O        O      0.390100000000     0.998100000000     0.632100000000     0          
O        O      0.308800000000     0.500450000000     0.606650000000     0          
O        O      0.461300000000     0.750800000000     0.653500000000     0          
O        O      0.003700000000     0.711350000000     0.619700000000     0          
O        O      0.443400000000     0.776200000000     0.709950000000     0          
O        O      0.440800000000     0.674750000000     0.724650000000     0          
O        O      0.375400000000     0.662750000000     0.707950000000     0          
O        O      0.414950000000     0.583950000000     0.715750000000     0          
O        O      0.313400000000     0.696050000000     0.690650000000     0          
O        O      0.363950000000     0.756150000000     0.688050000000     0          
O        O      0.297600000000     0.600250000000     0.690250000000     0          
O        O      0.252450000000     0.666400000000     0.661650000000     0          
O        O      0.353800000000     0.548450000000     0.698700000000     0          
O        O      0.296600000000     0.507300000000     0.667850000000     0          
O        O      0.404950000000     0.988900000000     0.698700000000     0          
O        O      0.190350000000     0.690500000000     0.661950000000     0          
O        O      0.209800000000     0.596100000000     0.670550000000     0          
O        O      0.128050000000     0.663350000000     0.660250000000     0          
O        O      0.092250000000     0.581300000000     0.647250000000     0          
O        O      0.062250000000     0.669950000000     0.644850000000     0          
O        O      0.153350000000     0.546050000000     0.651350000000     0          
T        Si     0.044150000000     0.716400000000     0.517050000000     0          
T        Si     0.094150000000     0.639800000000     0.558100000000     0          
T        Si     0.153950000000     0.707900000000     0.545000000000     0          
T        Si     0.215550000000     0.644900000000     0.575450000000     0          
T        Si     0.192850000000     0.539600000000     0.552650000000     0          
T        Si     0.115300000000     0.536600000000     0.536550000000     0          
T        Si     0.291150000000     0.646100000000     0.593000000000     0          
T        Si     0.352100000000     0.706850000000     0.589900000000     0          
T        Si     0.413100000000     0.639200000000     0.623700000000     0          
T        Si     0.391200000000     0.534100000000     0.600250000000     0          
T        Si     0.314750000000     0.539750000000     0.578200000000     0          
T        Si     0.464800000000     0.722300000000     0.619200000000     0          
T        Si     0.410900000000     0.641350000000     0.702800000000     0          
T        Si     0.351400000000     0.710600000000     0.708500000000     0          
T        Si     0.291650000000     0.651900000000     0.669100000000     0          
T        Si     0.314150000000     0.545350000000     0.697350000000     0          
T        Si     0.391750000000     0.535550000000     0.717600000000     0          
T        Si     0.214100000000     0.647850000000     0.651300000000     0          
T        Si     0.153350000000     0.710300000000     0.663200000000     0          
T        Si     0.094250000000     0.639800000000     0.637600000000     0          
T        Si     0.115200000000     0.531500000000     0.652100000000     0          
T        Si     0.191950000000     0.542250000000     0.671200000000     0          
T        Si     0.042850000000     0.722250000000     0.634750000000     0          
O        O      0.061150000000     0.832800000000     0.786750000000     0          
O        O      0.053350000000     0.735200000000     0.791150000000     0          
O        O      0.004100000000     0.790650000000     0.757050000000     0          
O        O      0.058450000000     0.774950000000     0.733250000000     0          
O        O      0.127250000000     0.834200000000     0.800300000000     0          
O        O      0.093150000000     0.918500000000     0.797200000000     0          
O        O      0.094950000000     0.855400000000     0.848000000000     0          
O        O      0.190600000000     0.817400000000     0.800850000000     0          
O        O      0.143450000000     0.771150000000     0.756700000000     0          
O        O      0.154650000000     0.746850000000     0.821550000000     0          
O        O      0.214850000000     0.909650000000     0.808050000000     0          
O        O      0.253250000000     0.833350000000     0.832600000000     0          
O        O      0.203700000000     0.860650000000     0.860900000000     0          
O        O      0.153750000000     0.945450000000     0.792500000000     0          
O        O      0.199400000000     0.992600000000     0.837150000000     0          
O        O      0.202700000000     0.993250000000     0.772700000000     0          
O        O      0.102300000000     0.977150000000     0.747050000000     0          
O        O      0.112450000000     0.511950000000     0.809550000000     0          
O        O      0.315650000000     0.818150000000     0.827000000000     0          
O        O      0.303350000000     0.854500000000     0.883700000000     0          
O        O      0.292650000000     0.910450000000     0.829250000000     0          
O        O      0.379050000000     0.837350000000     0.851550000000     0          
O        O      0.351050000000     0.757100000000     0.871700000000     0          
O        O      0.415400000000     0.918850000000     0.863100000000     0          
O        O      0.444750000000     0.830150000000     0.866150000000     0          
O        O      0.412500000000     0.856550000000     0.913350000000     0          
O        O      0.353900000000     0.945650000000     0.834750000000     0          
O        O      0.390100000000     0.501900000000     0.882100000000     0          
O        O      0.308800000000     0.999550000000     0.856650000000     0          
O        O      0.461300000000     0.749200000000     0.903500000000     0          
O        O      0.003700000000     0.788650000000     0.869700000000     0          
O        O      0.443400000000     0.723800000000     0.959950000000     0          
O        O      0.440800000000     0.825250000000     0.974650000000     0          
O        O      0.375400000000     0.837250000000     0.957950000000     0          
O        O      0.414950000000     0.916050000000     0.965750000000     0          
O        O      0.313400000000     0.803950000000     0.940650000000     0          
O        O      0.363950000000     0.743850000000     0.938050000000     0          
O        O      0.297600000000     0.899750000000     0.940250000000     0          
O        O      0.252450000000     0.833600000000     0.911650000000     0          
O        O      0.353800000000     0.951550000000     0.948700000000     0          
O        O      0.296600000000     0.992700000000     0.917850000000     0          
O        O      0.404950000000     0.511100000000     0.948700000000     0          
O        O      0.190350000000     0.809500000000     0.911950000000     0          
O        O      0.209800000000     0.903900000000     0.920550000000     0          
O        O      0.128050000000     0.836650000000     0.910250000000     0          
O        O      0.092250000000     0.918700000000     0.897250000000     0          
O        O      0.062250000000     0.830050000000     0.894850000000     0          
O        O      0.153350000000     0.953950000000     0.901350000000     0          
T        Si     0.044150000000     0.783600000000     0.767050000000     0          
T        Si     0.094150000000     0.860200000000     0.808100000000     0          
T        Si     0.153950000000     0.792100000000     0.795000000000     0          
T        Si     0.215550000000     0.855100000000     0.825450000000     0          
T        Si     0.192850000000     0.960400000000     0.802650000000     0          
T        Si     0.115300000000     0.963400000000     0.786550000000     0          
T        Si     0.291150000000     0.853900000000     0.843000000000     0          
T        Si     0.352100000000     0.793150000000     0.839900000000     0          
T        Si     0.413100000000     0.860800000000     0.873700000000     0          
T        Si     0.391200000000     0.965900000000     0.850250000000     0          
T        Si     0.314750000000     0.960250000000     0.828200000000     0          
T        Si     0.464800000000     0.777700000000     0.869200000000     0          
T        Si     0.410900000000     0.858650000000     0.952800000000     0          
T        Si     0.351400000000     0.789400000000     0.958500000000     0          
T        Si     0.291650000000     0.848100000000     0.919100000000     0          
T        Si     0.314150000000     0.954650000000     0.947350000000     0          
T        Si     0.391750000000     0.964450000000     0.967600000000     0          
T        Si     0.214100000000     0.852150000000     0.901300000000     0          
T        Si     0.153350000000     0.789700000000     0.913200000000     0          
T        Si     0.094250000000     0.860200000000     0.887600000000     0          
T        Si     0.115200000000     0.968500000000     0.902100000000     0          
T        Si     0.191950000000     0.957750000000     0.921200000000     0          
T        Si     0.042850000000     0.777750000000     0.884750000000     0          
O        O      0.311150000000     0.917200000000     0.536750000000     0          
O        O      0.303350000000     0.514800000000     0.541150000000     0          
O        O      0.254100000000     0.959350000000     0.507050000000     0          
O        O      0.308450000000     0.975050000000     0.983250000000     0          
O        O      0.377250000000     0.915800000000     0.550300000000     0          
O        O      0.343150000000     0.831500000000     0.547200000000     0          
O        O      0.344950000000     0.894600000000     0.598000000000     0          
O        O      0.440600000000     0.932600000000     0.550850000000     0          
O        O      0.393450000000     0.978850000000     0.506700000000     0          
O        O      0.404650000000     0.503150000000     0.571550000000     0          
O        O      0.464850000000     0.840350000000     0.558050000000     0          
O        O      0.003250000000     0.916650000000     0.582600000000     0          
O        O      0.453700000000     0.889350000000     0.610900000000     0          
O        O      0.403750000000     0.804550000000     0.542500000000     0          
O        O      0.449400000000     0.757400000000     0.587150000000     0          
O        O      0.452700000000     0.756750000000     0.522700000000     0          
O        O      0.352300000000     0.772850000000     0.997050000000     0          
O        O      0.362450000000     0.738050000000     0.559550000000     0          
O        O      0.065650000000     0.931850000000     0.577000000000     0          
O        O      0.053350000000     0.895500000000     0.633700000000     0          
O        O      0.042650000000     0.839550000000     0.579250000000     0          
O        O      0.129050000000     0.912650000000     0.601550000000     0          
O        O      0.101050000000     0.992900000000     0.621700000000     0          
O        O      0.165400000000     0.831150000000     0.613100000000     0          
O        O      0.194750000000     0.919850000000     0.616150000000     0          
O        O      0.162500000000     0.893450000000     0.663350000000     0          
O        O      0.103900000000     0.804350000000     0.584750000000     0          
O        O      0.140100000000     0.748100000000     0.632100000000     0          
O        O      0.058800000000     0.750450000000     0.606650000000     0          
O        O      0.211300000000     0.500800000000     0.653500000000     0          
O        O      0.253700000000     0.961350000000     0.619700000000     0          
O        O      0.193400000000     0.526200000000     0.709950000000     0          
O        O      0.190800000000     0.924750000000     0.724650000000     0          
O        O      0.125400000000     0.912750000000     0.707950000000     0          
O        O      0.164950000000     0.833950000000     0.715750000000     0          
O        O      0.063400000000     0.946050000000     0.690650000000     0          
O        O      0.113950000000     0.506150000000     0.688050000000     0          
O        O      0.047600000000     0.850250000000     0.690250000000     0          
O        O      0.002450000000     0.916400000000     0.661650000000     0          
O        O      0.103800000000     0.798450000000     0.698700000000     0          
O        O      0.046600000000     0.757300000000     0.667850000000     0          
O        O      0.154950000000     0.738900000000     0.698700000000     0          
O        O      0.440350000000     0.940500000000     0.661950000000     0          
O        O      0.459800000000     0.846100000000     0.670550000000     0          
O        O      0.378050000000     0.913350000000     0.660250000000     0          
O        O      0.342250000000     0.831300000000     0.647250000000     0          
O        O      0.312250000000     0.919950000000     0.644850000000     0          
O        O      0.403350000000     0.796050000000     0.651350000000     0          
T        Si     0.294150000000     0.966400000000     0.517050000000     0          
T        Si     0.344150000000     0.889800000000     0.558100000000     0          
T        Si     0.403950000000     0.957900000000     0.545000000000     0          
T        Si     0.465550000000     0.894900000000     0.575450000000     0          
T        Si     0.442850000000     0.789600000000     0.552650000000     0          
T        Si     0.365300000000     0.786600000000     0.536550000000     0          
T        Si     0.041150000000     0.896100000000     0.593000000000     0          
T        Si     0.102100000000     0.956850000000     0.589900000000     0          
T        Si     0.163100000000     0.889200000000     0.623700000000     0          
T        Si     0.141200000000     0.784100000000     0.600250000000     0          
T        Si     0.064750000000     0.789750000000     0.578200000000     0          
T        Si     0.214800000000     0.972300000000     0.619200000000     0          
T        Si     0.160900000000     0.891350000000     0.702800000000     0          
T        Si     0.101400000000     0.960600000000     0.708500000000     0          
T        Si     0.041650000000     0.901900000000     0.669100000000     0          
T        Si     0.064150000000     0.795350000000     0.697350000000     0          
T        Si     0.141750000000     0.785550000000     0.717600000000     0          
T        Si     0.464100000000     0.897850000000     0.651300000000     0          
T        Si     0.403350000000     0.960300000000     0.663200000000     0          
T        Si     0.344250000000     0.889800000000     0.637600000000     0          
T        Si     0.365200000000     0.781500000000     0.652100000000     0          
T        Si     0.441950000000     0.792250000000     0.671200000000     0          
T        Si     0.292850000000     0.972250000000     0.634750000000     0          
O        O      0.311150000000     0.582800000000     0.786750000000     0          
O        O      0.303350000000     0.985200000000     0.791150000000     0          
O        O      0.254100000000     0.540650000000     0.757050000000     0          
O        O      0.308450000000     0.524950000000     0.733250000000     0          
O        O      0.377250000000     0.584200000000     0.800300000000     0          
O        O      0.343150000000     0.668500000000     0.797200000000     0          
O        O      0.344950000000     0.605400000000     0.848000000000     0          
O        O      0.440600000000     0.567400000000     0.800850000000     0          
O        O      0.393450000000     0.521150000000     0.756700000000     0          
O        O      0.404650000000     0.996850000000     0.821550000000     0          
O        O      0.464850000000     0.659650000000     0.808050000000     0          
O        O      0.003250000000     0.583350000000     0.832600000000     0          
O        O      0.453700000000     0.610650000000     0.860900000000     0          
O        O      0.403750000000     0.695450000000     0.792500000000     0          
O        O      0.449400000000     0.742600000000     0.837150000000     0          
O        O      0.452700000000     0.743250000000     0.772700000000     0          
O        O      0.352300000000     0.727150000000     0.747050000000     0          
O        O      0.362450000000     0.761950000000     0.809550000000     0          
O        O      0.065650000000     0.568150000000     0.827000000000     0          
O        O      0.053350000000     0.604500000000     0.883700000000     0          
O        O      0.042650000000     0.660450000000     0.829250000000     0          
O        O      0.129050000000     0.587350000000     0.851550000000     0          
O        O      0.101050000000     0.507100000000     0.871700000000     0          
O        O      0.165400000000     0.668850000000     0.863100000000     0          
O        O      0.194750000000     0.580150000000     0.866150000000     0          
O        O      0.162500000000     0.606550000000     0.913350000000     0          
O        O      0.103900000000     0.695650000000     0.834750000000     0          
O        O      0.140100000000     0.751900000000     0.882100000000     0          
O        O      0.058800000000     0.749550000000     0.856650000000     0          
O        O      0.211300000000     0.999200000000     0.903500000000     0          
O        O      0.253700000000     0.538650000000     0.869700000000     0          
O        O      0.193400000000     0.973800000000     0.959950000000     0          
O        O      0.190800000000     0.575250000000     0.974650000000     0          
O        O      0.125400000000     0.587250000000     0.957950000000     0          
O        O      0.164950000000     0.666050000000     0.965750000000     0          
O        O      0.063400000000     0.553950000000     0.940650000000     0          
O        O      0.113950000000     0.993850000000     0.938050000000     0          
O        O      0.047600000000     0.649750000000     0.940250000000     0          
O        O      0.002450000000     0.583600000000     0.911650000000     0          
O        O      0.103800000000     0.701550000000     0.948700000000     0          
O        O      0.046600000000     0.742700000000     0.917850000000     0          
O        O      0.154950000000     0.761100000000     0.948700000000     0          
O        O      0.440350000000     0.559500000000     0.911950000000     0          
O        O      0.459800000000     0.653900000000     0.920550000000     0          
O        O      0.378050000000     0.586650000000     0.910250000000     0          
O        O      0.342250000000     0.668700000000     0.897250000000     0          
O        O      0.312250000000     0.580050000000     0.894850000000     0          
O        O      0.403350000000     0.703950000000     0.901350000000     0          
T        Si     0.294150000000     0.533600000000     0.767050000000     0          
T        Si     0.344150000000     0.610200000000     0.808100000000     0          
T        Si     0.403950000000     0.542100000000     0.795000000000     0          
T        Si     0.465550000000     0.605100000000     0.825450000000     0          
T        Si     0.442850000000     0.710400000000     0.802650000000     0          
T        Si     0.365300000000     0.713400000000     0.786550000000     0          
T        Si     0.041150000000     0.603900000000     0.843000000000     0          
T        Si     0.102100000000     0.543150000000     0.839900000000     0          
T        Si     0.163100000000     0.610800000000     0.873700000000     0          
T        Si     0.141200000000     0.715900000000     0.850250000000     0          
T        Si     0.064750000000     0.710250000000     0.828200000000     0          
T        Si     0.214800000000     0.527700000000     0.869200000000     0          
T        Si     0.160900000000     0.608650000000     0.952800000000     0          
T        Si     0.101400000000     0.539400000000     0.958500000000     0          
T        Si     0.041650000000     0.598100000000     0.919100000000     0          
T        Si     0.064150000000     0.704650000000     0.947350000000     0          
T        Si     0.141750000000     0.714450000000     0.967600000000     0          
T        Si     0.464100000000     0.602150000000     0.901300000000     0          
T        Si     0.403350000000     0.539700000000     0.913200000000     0          
T        Si     0.344250000000     0.610200000000     0.887600000000     0          
T        Si     0.365200000000     0.718500000000     0.902100000000     0          
T        Si     0.441950000000     0.707750000000     0.921200000000     0          
T        Si     0.292850000000     0.527750000000     0.884750000000     0          
O        O      0.561150000000     0.167200000000     0.036750000000     0          
O        O      0.553350000000     0.264800000000     0.041150000000     0          
O        O      0.504100000000     0.209350000000     0.007050000000     0          
O        O      0.558450000000     0.225050000000     0.483250000000     0          
O        O      0.627250000000     0.165800000000     0.050300000000     0          
O        O      0.593150000000     0.081500000000     0.047200000000     0          
O        O      0.594950000000     0.144600000000     0.098000000000     0          
O        O      0.690600000000     0.182600000000     0.050850000000     0          
O        O      0.643450000000     0.228850000000     0.006700000000     0          
O        O      0.654650000000     0.253150000000     0.071550000000     0          
O        O      0.714850000000     0.090350000000     0.058050000000     0          
O        O      0.753250000000     0.166650000000     0.082600000000     0          
O        O      0.703700000000     0.139350000000     0.110900000000     0          
O        O      0.653750000000     0.054550000000     0.042500000000     0          
O        O      0.699400000000     0.007400000000     0.087150000000     0          
O        O      0.702700000000     0.006750000000     0.022700000000     0          
O        O      0.602300000000     0.022850000000     0.497050000000     0          
O        O      0.612450000000     0.488050000000     0.059550000000     0          
O        O      0.815650000000     0.181850000000     0.077000000000     0          
O        O      0.803350000000     0.145500000000     0.133700000000     0          
O        O      0.792650000000     0.089550000000     0.079250000000     0          
O        O      0.879050000000     0.162650000000     0.101550000000     0          
O        O      0.851050000000     0.242900000000     0.121700000000     0          
O        O      0.915400000000     0.081150000000     0.113100000000     0          
O        O      0.944750000000     0.169850000000     0.116150000000     0          
O        O      0.912500000000     0.143450000000     0.163350000000     0          
O        O      0.853900000000     0.054350000000     0.084750000000     0          
O        O      0.890100000000     0.498100000000     0.132100000000     0          
O        O      0.808800000000     0.000450000000     0.106650000000     0          
O        O      0.961300000000     0.250800000000     0.153500000000     0          
O        O      0.503700000000     0.211350000000     0.119700000000     0          
O        O      0.943400000000     0.276200000000     0.209950000000     0          
O        O      0.940800000000     0.174750000000     0.224650000000     0          
O        O      0.875400000000     0.162750000000     0.207950000000     0          
O        O      0.914950000000     0.083950000000     0.215750000000     0          
O        O      0.813400000000     0.196050000000     0.190650000000     0          
O        O      0.863950000000     0.256150000000     0.188050000000     0          
O        O      0.797600000000     0.100250000000     0.190250000000     0          
O        O      0.752450000000     0.166400000000     0.161650000000     0          
O        O      0.853800000000     0.048450000000     0.198700000000     0          
O        O      0.796600000000     0.007300000000     0.167850000000     0          
O        O      0.904950000000     0.488900000000     0.198700000000     0          
O        O      0.690350000000     0.190500000000     0.161950000000     0          
O        O      0.709800000000     0.096100000000     0.170550000000     0          
O        O      0.628050000000     0.163350000000     0.160250000000     0          
O        O      0.592250000000     0.081300000000     0.147250000000     0          
O        O      0.562250000000     0.169950000000     0.144850000000     0          
O        O      0.653350000000     0.046050000000     0.151350000000     0          
T        Si     0.544150000000     0.216400000000     0.017050000000     0          
T        Si     0.594150000000     0.139800000000     0.058100000000     0          
T        Si     0.653950000000     0.207900000000     0.045000000000     0          
T        Si     0.715550000000     0.144900000000     0.075450000000     0          
T        Si     0.692850000000     0.039600000000     0.052650000000     0          
T        Si     0.615300000000     0.036600000000     0.036550000000     0          
T        Si     0.791150000000     0.146100000000     0.093000000000     0          
T        Si     0.852100000000     0.206850000000     0.089900000000     0          
T        Si     0.913100000000     0.139200000000     0.123700000000     0          
T        Si     0.891200000000     0.034100000000     0.100250000000     0          
T        Si     0.814750000000     0.039750000000     0.078200000000     0          
T        Si     0.964800000000     0.222300000000     0.119200000000     0          
T        Si     0.910900000000     0.141350000000     0.202800000000     0          
T        Si     0.851400000000     0.210600000000     0.208500000000     0          
T        Si     0.791650000000     0.151900000000     0.169100000000     0          
T        Si     0.814150000000     0.045350000000     0.197350000000     0          
T        Si     0.891750000000     0.035550000000     0.217600000000     0          
T        Si     0.714100000000     0.147850000000     0.151300000000     0          
T        Si     0.653350000000     0.210300000000     0.163200000000     0          
T        Si     0.594250000000     0.139800000000     0.137600000000     0          
T        Si     0.615200000000     0.031500000000     0.152100000000     0          
T        Si     0.691950000000     0.042250000000     0.171200000000     0          
T        Si     0.542850000000     0.222250000000     0.134750000000     0          
O        O      0.561150000000     0.332800000000     0.286750000000     0          
O        O      0.553350000000     0.235200000000     0.291150000000     0          
O        O      0.504100000000     0.290650000000     0.257050000000     0          
O        O      0.558450000000     0.274950000000     0.233250000000     0          
O        O      0.627250000000     0.334200000000     0.300300000000     0          
O        O      0.593150000000     0.418500000000     0.297200000000     0          
O        O      0.594950000000     0.355400000000     0.348000000000     0          
O        O      0.690600000000     0.317400000000     0.300850000000     0          
O        O      0.643450000000     0.271150000000     0.256700000000     0          
O        O      0.654650000000     0.246850000000     0.321550000000     0          
O        O      0.714850000000     0.409650000000     0.308050000000     0          
O        O      0.753250000000     0.333350000000     0.332600000000     0          
O        O      0.703700000000     0.360650000000     0.360900000000     0          
O        O      0.653750000000     0.445450000000     0.292500000000     0          
O        O      0.699400000000     0.492600000000     0.337150000000     0          
O        O      0.702700000000     0.493250000000     0.272700000000     0          
O        O      0.602300000000     0.477150000000     0.247050000000     0          
O        O      0.612450000000     0.011950000000     0.309550000000     0          
O        O      0.815650000000     0.318150000000     0.327000000000     0          
O        O      0.803350000000     0.354500000000     0.383700000000     0          
O        O      0.792650000000     0.410450000000     0.329250000000     0          
O        O      0.879050000000     0.337350000000     0.351550000000     0          
O        O      0.851050000000     0.257100000000     0.371700000000     0          
O        O      0.915400000000     0.418850000000     0.363100000000     0          
O        O      0.944750000000     0.330150000000     0.366150000000     0          
O        O      0.912500000000     0.356550000000     0.413350000000     0          
O        O      0.853900000000     0.445650000000     0.334750000000     0          
O        O      0.890100000000     0.001900000000     0.382100000000     0          
O        O      0.808800000000     0.499550000000     0.356650000000     0          
O        O      0.961300000000     0.249200000000     0.403500000000     0          
O        O      0.503700000000     0.288650000000     0.369700000000     0          
O        O      0.943400000000     0.223800000000     0.459950000000     0          
O        O      0.940800000000     0.325250000000     0.474650000000     0          
O        O      0.875400000000     0.337250000000     0.457950000000     0          
O        O      0.914950000000     0.416050000000     0.465750000000     0          
O        O      0.813400000000     0.303950000000     0.440650000000     0          
O        O      0.863950000000     0.243850000000     0.438050000000     0          
O        O      0.797600000000     0.399750000000     0.440250000000     0          
O        O      0.752450000000     0.333600000000     0.411650000000     0          
O        O      0.853800000000     0.451550000000     0.448700000000     0          
O        O      0.796600000000     0.492700000000     0.417850000000     0          
O        O      0.904950000000     0.011100000000     0.448700000000     0          
O        O      0.690350000000     0.309500000000     0.411950000000     0          
O        O      0.709800000000     0.403900000000     0.420550000000     0          
O        O      0.628050000000     0.336650000000     0.410250000000     0          
O        O      0.592250000000     0.418700000000     0.397250000000     0          
O        O      0.562250000000     0.330050000000     0.394850000000     0          
O        O      0.653350000000     0.453950000000     0.401350000000     0          
T        Si     0.544150000000     0.283600000000     0.267050000000     0          
T        Si     0.594150000000     0.360200000000     0.308100000000     0          
T        Si     0.653950000000     0.292100000000     0.295000000000     0          
T        Si     0.715550000000     0.355100000000     0.325450000000     0          
T        Si     0.692850000000     0.460400000000     0.302650000000     0          
T        Si     0.615300000000     0.463400000000     0.286550000000     0          
T        Si     0.791150000000     0.353900000000     0.343000000000     0          
T        Si     0.852100000000     0.293150000000     0.339900000000     0          
T        Si     0.913100000000     0.360800000000     0.373700000000     0          
T        Si     0.891200000000     0.465900000000     0.350250000000     0          
T        Si     0.814750000000     0.460250000000     0.328200000000     0          
T        Si     0.964800000000     0.277700000000     0.369200000000     0          
T        Si     0.910900000000     0.358650000000     0.452800000000     0          
T        Si     0.851400000000     0.289400000000     0.458500000000     0          
T        Si     0.791650000000     0.348100000000     0.419100000000     0          
T        Si     0.814150000000     0.454650000000     0.447350000000     0          
T        Si     0.891750000000     0.464450000000     0.467600000000     0          
T        Si     0.714100000000     0.352150000000     0.401300000000     0          
T        Si     0.653350000000     0.289700000000     0.413200000000     0          
T        Si     0.594250000000     0.360200000000     0.387600000000     0          
T        Si     0.615200000000     0.468500000000     0.402100000000     0          
T        Si     0.691950000000     0.457750000000     0.421200000000     0          
T        Si     0.542850000000     0.277750000000     0.384750000000     0          
O        O      0.811150000000     0.417200000000     0.036750000000     0          
O        O      0.803350000000     0.014800000000     0.041150000000     0          
O        O      0.754100000000     0.459350000000     0.007050000000     0          
O        O      0.808450000000     0.475050000000     0.483250000000     0          
O        O      0.877250000000     0.415800000000     0.050300000000     0          
O        O      0.843150000000     0.331500000000     0.047200000000     0          
O        O      0.844950000000     0.394600000000     0.098000000000     0          
O        O      0.940600000000     0.432600000000     0.050850000000     0          
O        O      0.893450000000     0.478850000000     0.006700000000     0          
O        O      0.904650000000     0.003150000000     0.071550000000     0          
O        O      0.964850000000     0.340350000000     0.058050000000     0          
O        O      0.503250000000     0.416650000000     0.082600000000     0          
O        O      0.953700000000     0.389350000000     0.110900000000     0          
O        O      0.903750000000     0.304550000000     0.042500000000     0          
O        O      0.949400000000     0.257400000000     0.087150000000     0          
O        O      0.952700000000     0.256750000000     0.022700000000     0          
O        O      0.852300000000     0.272850000000     0.497050000000     0          
O        O      0.862450000000     0.238050000000     0.059550000000     0          
O        O      0.565650000000     0.431850000000     0.077000000000     0          
O        O      0.553350000000     0.395500000000     0.133700000000     0          
O        O      0.542650000000     0.339550000000     0.079250000000     0          
O        O      0.629050000000     0.412650000000     0.101550000000     0          
O        O      0.601050000000     0.492900000000     0.121700000000     0          
O        O      0.665400000000     0.331150000000     0.113100000000     0          
O        O      0.694750000000     0.419850000000     0.116150000000     0          
O        O      0.662500000000     0.393450000000     0.163350000000     0          
O        O      0.603900000000     0.304350000000     0.084750000000     0          
O        O      0.640100000000     0.248100000000     0.132100000000     0          
O        O      0.558800000000     0.250450000000     0.106650000000     0          
O        O      0.711300000000     0.000800000000     0.153500000000     0          
O        O      0.753700000000     0.461350000000     0.119700000000     0          
O        O      0.693400000000     0.026200000000     0.209950000000     0          
O        O      0.690800000000     0.424750000000     0.224650000000     0          
O        O      0.625400000000     0.412750000000     0.207950000000     0          
O        O      0.664950000000     0.333950000000     0.215750000000     0          
O        O      0.563400000000     0.446050000000     0.190650000000     0          
O        O      0.613950000000     0.006150000000     0.188050000000     0          
O        O      0.547600000000     0.350250000000     0.190250000000     0          
O        O      0.502450000000     0.416400000000     0.161650000000     0          
O        O      0.603800000000     0.298450000000     0.198700000000     0          
O        O      0.546600000000     0.257300000000     0.167850000000     0          
O        O      0.654950000000     0.238900000000     0.198700000000     0          
O        O      0.940350000000     0.440500000000     0.161950000000     0          
O        O      0.959800000000     0.346100000000     0.170550000000     0          
O        O      0.878050000000     0.413350000000     0.160250000000     0          
O        O      0.842250000000     0.331300000000     0.147250000000     0          
O        O      0.812250000000     0.419950000000     0.144850000000     0          
O        O      0.903350000000     0.296050000000     0.151350000000     0          
T        Si     0.794150000000     0.466400000000     0.017050000000     0          
T        Si     0.844150000000     0.389800000000     0.058100000000     0          
T        Si     0.903950000000     0.457900000000     0.045000000000     0          
T        Si     0.965550000000     0.394900000000     0.075450000000     0          
T        Si     0.942850000000     0.289600000000     0.052650000000     0          
T        Si     0.865300000000     0.286600000000     0.036550000000     0          
T        Si     0.541150000000     0.396100000000     0.093000000000     0          
T        Si     0.602100000000     0.456850000000     0.089900000000     0          
T        Si     0.663100000000     0.389200000000     0.123700000000     0          
T        Si     0.641200000000     0.284100000000     0.100250000000     0          
T        Si     0.564750000000     0.289750000000     0.078200000000     0          
T        Si     0.714800000000     0.472300000000     0.119200000000     0          
T        Si     0.660900000000     0.391350000000     0.202800000000     0          
T        Si     0.601400000000     0.460600000000     0.208500000000     0          
T        Si     0.541650000000     0.401900000000     0.169100000000     0          
T        Si     0.564150000000     0.295350000000     0.197350000000     0          
T        Si     0.641750000000     0.285550000000     0.217600000000     0          
T        Si     0.964100000000     0.397850000000     0.151300000000     0          
T        Si     0.903350000000     0.460300000000     0.163200000000     0          
T        Si     0.844250000000     0.389800000000     0.137600000000     0          
T        Si     0.865200000000     0.281500000000     0.152100000000     0          
T        Si     0.941950000000     0.292250000000     0.171200000000     0          
T        Si     0.792850000000     0.472250000000     0.134750000000     0          
O        O      0.811150000000     0.082800000000     0.286750000000     0          
O        O      0.803350000000     0.485200000000     0.291150000000     0          
O        O      0.754100000000     0.040650000000     0.257050000000     0          
O        O      0.808450000000     0.024950000000     0.233250000000     0          
O        O      0.877250000000     0.084200000000     0.300300000000     0          
O        O      0.843150000000     0.168500000000     0.297200000000     0          
O        O      0.844950000000     0.105400000000     0.348000000000     0          
O        O      0.940600000000     0.067400000000     0.300850000000     0          
O        O      0.893450000000     0.021150000000     0.256700000000     0          
O        O      0.904650000000     0.496850000000     0.321550000000     0          
O        O      0.964850000000     0.159650000000     0.308050000000     0          
O        O      0.503250000000     0.083350000000     0.332600000000     0          
O        O      0.953700000000     0.110650000000     0.360900000000     0          
O        O      0.903750000000     0.195450000000     0.292500000000     0          
O        O      0.949400000000     0.242600000000     0.337150000000     0          
O        O      0.952700000000     0.243250000000     0.272700000000     0          
O        O      0.852300000000     0.227150000000     0.247050000000     0          
O        O      0.862450000000     0.261950000000     0.309550000000     0          
O        O      0.565650000000     0.068150000000     0.327000000000     0          
O        O      0.553350000000     0.104500000000     0.383700000000     0          
O        O      0.542650000000     0.160450000000     0.329250000000     0          
O        O      0.629050000000     0.087350000000     0.351550000000     0          
O        O      0.601050000000     0.007100000000     0.371700000000     0          
O        O      0.665400000000     0.168850000000     0.363100000000     0          
O        O      0.694750000000     0.080150000000     0.366150000000     0          
O        O      0.662500000000     0.106550000000     0.413350000000     0          
O        O      0.603900000000     0.195650000000     0.334750000000     0          
O        O      0.640100000000     0.251900000000     0.382100000000     0          
O        O      0.558800000000     0.249550000000     0.356650000000     0          
O        O      0.711300000000     0.499200000000     0.403500000000     0          
O        O      0.753700000000     0.038650000000     0.369700000000     0          
O        O      0.693400000000     0.473800000000     0.459950000000     0          
O        O      0.690800000000     0.075250000000     0.474650000000     0          
O        O      0.625400000000     0.087250000000     0.457950000000     0          
O        O      0.664950000000     0.166050000000     0.465750000000     0          
O        O      0.563400000000     0.053950000000     0.440650000000     0          
O        O      0.613950000000     0.493850000000     0.438050000000     0          
O        O      0.547600000000     0.149750000000     0.440250000000     0          
O        O      0.502450000000     0.083600000000     0.411650000000     0          
O        O      0.603800000000     0.201550000000     0.448700000000     0          
O        O      0.546600000000     0.242700000000     0.417850000000     0          
O        O      0.654950000000     0.261100000000     0.448700000000     0          
O        O      0.940350000000     0.059500000000     0.411950000000     0          
O        O      0.959800000000     0.153900000000     0.420550000000     0          
O        O      0.878050000000     0.086650000000     0.410250000000     0          
O        O      0.842250000000     0.168700000000     0.397250000000     0          
O        O      0.812250000000     0.080050000000     0.394850000000     0          
O        O      0.903350000000     0.203950000000     0.401350000000     0          
T        Si     0.794150000000     0.033600000000     0.267050000000     0          
T        Si     0.844150000000     0.110200000000     0.308100000000     0          
T        Si     0.903950000000     0.042100000000     0.295000000000     0          
T        Si     0.965550000000     0.105100000000     0.325450000000     0          
T        Si     0.942850000000     0.210400000000     0.302650000000     0          
T        Si     0.865300000000     0.213400000000     0.286550000000     0          
T        Si     0.541150000000     0.103900000000     0.343000000000     0          
T        Si     0.602100000000     0.043150000000     0.339900000000     0          
T        Si     0.663100000000     0.110800000000     0.373700000000     0          
T        Si     0.641200000000     0.215900000000     0.350250000000     0          
T        Si     0.564750000000     0.210250000000     0.328200000000     0          
T        Si     0.714800000000     0.027700000000     0.369200000000     0          
T        Si     0.660900000000     0.108650000000     0.452800000000     0          
T        Si     0.601400000000     0.039400000000     0.458500000000     0          
T        Si     0.541650000000     0.098100000000     0.419100000000     0          
T        Si     0.564150000000     0.204650000000     0.447350000000     0          
T        Si     0.641750000000     0.214450000000     0.467600000000     0          
T        Si     0.964100000000     0.102150000000     0.401300000000     0          
T        Si     0.903350000000     0.039700000000     0.413200000000     0          
T        Si     0.844250000000     0.110200000000     0.387600000000     0          
T        Si     0.865200000000     0.218500000000     0.402100000000     0          
T        Si     0.941950000000     0.207750000000     0.421200000000     0          
T        Si     0.792850000000     0.027750000000     0.384750000000     0          
O        O      0.561150000000     0.167200000000     0.536750000000     0          
O        O      0.553350000000     0.264800000000     0.541150000000     0          
O        O      0.504100000000     0.209350000000     0.507050000000     0          
O        O      0.558450000000     0.225050000000     0.983250000000     0          
O        O      0.627250000000     0.165800000000     0.550300000000     0          
O        O      0.593150000000     0.081500000000     0.547200000000     0          
O        O      0.594950000000     0.144600000000     0.598000000000     0          
O        O      0.690600000000     0.182600000000     0.550850000000     0          
O        O      0.643450000000     0.228850000000     0.506700000000     0          
O        O      0.654650000000     0.253150000000     0.571550000000     0          
O        O      0.714850000000     0.090350000000     0.558050000000     0          
O        O      0.753250000000     0.166650000000     0.582600000000     0          
O        O      0.703700000000     0.139350000000     0.610900000000     0          
O        O      0.653750000000     0.054550000000     0.542500000000     0          
O        O      0.699400000000     0.007400000000     0.587150000000     0          
O        O      0.702700000000     0.006750000000     0.522700000000     0          
O        O      0.602300000000     0.022850000000     0.997050000000     0          
O        O      0.612450000000     0.488050000000     0.559550000000     0          
O        O      0.815650000000     0.181850000000     0.577000000000     0          
O        O      0.803350000000     0.145500000000     0.633700000000     0          
O        O      0.792650000000     0.089550000000     0.579250000000     0          
O        O      0.879050000000     0.162650000000     0.601550000000     0          
O        O      0.851050000000     0.242900000000     0.621700000000     0          
O        O      0.915400000000     0.081150000000     0.613100000000     0          
O        O      0.944750000000     0.169850000000     0.616150000000     0          
O        O      0.912500000000     0.143450000000     0.663350000000     0          
O        O      0.853900000000     0.054350000000     0.584750000000     0          
O        O      0.890100000000     0.498100000000     0.632100000000     0          
O        O      0.808800000000     0.000450000000     0.606650000000     0          
O        O      0.961300000000     0.250800000000     0.653500000000     0          
O        O      0.503700000000     0.211350000000     0.619700000000     0          
O        O      0.943400000000     0.276200000000     0.709950000000     0          
O        O      0.940800000000     0.174750000000     0.724650000000     0          
O        O      0.875400000000     0.162750000000     0.707950000000     0          
O        O      0.914950000000     0.083950000000     0.715750000000     0          
O        O      0.813400000000     0.196050000000     0.690650000000     0          
O        O      0.863950000000     0.256150000000     0.688050000000     0          
O        O      0.797600000000     0.100250000000     0.690250000000     0          
O        O      0.752450000000     0.166400000000     0.661650000000     0          
O        O      0.853800000000     0.048450000000     0.698700000000     0          
O        O      0.796600000000     0.007300000000     0.667850000000     0          
O        O      0.904950000000     0.488900000000     0.698700000000     0          
O        O      0.690350000000     0.190500000000     0.661950000000     0          
O        O      0.709800000000     0.096100000000     0.670550000000     0          
O        O      0.628050000000     0.163350000000     0.660250000000     0          
O        O      0.592250000000     0.081300000000     0.647250000000     0          
O        O      0.562250000000     0.169950000000     0.644850000000     0          
O        O      0.653350000000     0.046050000000     0.651350000000     0          
T        Si     0.544150000000     0.216400000000     0.517050000000     0          
T        Si     0.594150000000     0.139800000000     0.558100000000     0          
T        Si     0.653950000000     0.207900000000     0.545000000000     0          
T        Si     0.715550000000     0.144900000000     0.575450000000     0          
T        Si     0.692850000000     0.039600000000     0.552650000000     0          
T        Si     0.615300000000     0.036600000000     0.536550000000     0          
T        Si     0.791150000000     0.146100000000     0.593000000000     0          
T        Si     0.852100000000     0.206850000000     0.589900000000     0          
T        Si     0.913100000000     0.139200000000     0.623700000000     0          
T        Si     0.891200000000     0.034100000000     0.600250000000     0          
T        Si     0.814750000000     0.039750000000     0.578200000000     0          
T        Si     0.964800000000     0.222300000000     0.619200000000     0          
T        Si     0.910900000000     0.141350000000     0.702800000000     0          
T        Si     0.851400000000     0.210600000000     0.708500000000     0          
T        Si     0.791650000000     0.151900000000     0.669100000000     0          
T        Si     0.814150000000     0.045350000000     0.697350000000     0          
T        Si     0.891750000000     0.035550000000     0.717600000000     0          
T        Si     0.714100000000     0.147850000000     0.651300000000     0          
T        Si     0.653350000000     0.210300000000     0.663200000000     0          
T        Si     0.594250000000     0.139800000000     0.637600000000     0          
T        Si     0.615200000000     0.031500000000     0.652100000000     0          
T        Si     0.691950000000     0.042250000000     0.671200000000     0          
T        Si     0.542850000000     0.222250000000     0.634750000000     0          
O        O      0.561150000000     0.332800000000     0.786750000000     0          
O        O      0.553350000000     0.235200000000     0.791150000000     0          
O        O      0.504100000000     0.290650000000     0.757050000000     0          
O        O      0.558450000000     0.274950000000     0.733250000000     0          
O        O      0.627250000000     0.334200000000     0.800300000000     0          
O        O      0.593150000000     0.418500000000     0.797200000000     0          
O        O      0.594950000000     0.355400000000     0.848000000000     0          
O        O      0.690600000000     0.317400000000     0.800850000000     0          
O        O      0.643450000000     0.271150000000     0.756700000000     0          
O        O      0.654650000000     0.246850000000     0.821550000000     0          
O        O      0.714850000000     0.409650000000     0.808050000000     0          
O        O      0.753250000000     0.333350000000     0.832600000000     0          
O        O      0.703700000000     0.360650000000     0.860900000000     0          
O        O      0.653750000000     0.445450000000     0.792500000000     0          
O        O      0.699400000000     0.492600000000     0.837150000000     0          
O        O      0.702700000000     0.493250000000     0.772700000000     0          
O        O      0.602300000000     0.477150000000     0.747050000000     0          
O        O      0.612450000000     0.011950000000     0.809550000000     0          
O        O      0.815650000000     0.318150000000     0.827000000000     0          
O        O      0.803350000000     0.354500000000     0.883700000000     0          
O        O      0.792650000000     0.410450000000     0.829250000000     0          
O        O      0.879050000000     0.337350000000     0.851550000000     0          
O        O      0.851050000000     0.257100000000     0.871700000000     0          
O        O      0.915400000000     0.418850000000     0.863100000000     0          
O        O      0.944750000000     0.330150000000     0.866150000000     0          
O        O      0.912500000000     0.356550000000     0.913350000000     0          
O        O      0.853900000000     0.445650000000     0.834750000000     0          
O        O      0.890100000000     0.001900000000     0.882100000000     0          
O        O      0.808800000000     0.499550000000     0.856650000000     0          
O        O      0.961300000000     0.249200000000     0.903500000000     0          
O        O      0.503700000000     0.288650000000     0.869700000000     0          
O        O      0.943400000000     0.223800000000     0.959950000000     0          
O        O      0.940800000000     0.325250000000     0.974650000000     0          
O        O      0.875400000000     0.337250000000     0.957950000000     0          
O        O      0.914950000000     0.416050000000     0.965750000000     0          
O        O      0.813400000000     0.303950000000     0.940650000000     0          
O        O      0.863950000000     0.243850000000     0.938050000000     0          
O        O      0.797600000000     0.399750000000     0.940250000000     0          
O        O      0.752450000000     0.333600000000     0.911650000000     0          
O        O      0.853800000000     0.451550000000     0.948700000000     0          
O        O      0.796600000000     0.492700000000     0.917850000000     0          
O        O      0.904950000000     0.011100000000     0.948700000000     0          
O        O      0.690350000000     0.309500000000     0.911950000000     0          
O        O      0.709800000000     0.403900000000     0.920550000000     0          
O        O      0.628050000000     0.336650000000     0.910250000000     0          
O        O      0.592250000000     0.418700000000     0.897250000000     0          
O        O      0.562250000000     0.330050000000     0.894850000000     0          
O        O      0.653350000000     0.453950000000     0.901350000000     0          
T        Si     0.544150000000     0.283600000000     0.767050000000     0          
T        Si     0.594150000000     0.360200000000     0.808100000000     0          
T        Si     0.653950000000     0.292100000000     0.795000000000     0          
T        Si     0.715550000000     0.355100000000     0.825450000000     0          
T        Si     0.692850000000     0.460400000000     0.802650000000     0          
T        Si     0.615300000000     0.463400000000     0.786550000000     0          
T        Si     0.791150000000     0.353900000000     0.843000000000     0          
T        Si     0.852100000000     0.293150000000     0.839900000000     0          
T        Si     0.913100000000     0.360800000000     0.873700000000     0          
T        Si     0.891200000000     0.465900000000     0.850250000000     0          
T        Si     0.814750000000     0.460250000000     0.828200000000     0          
T        Si     0.964800000000     0.277700000000     0.869200000000     0          
T        Si     0.910900000000     0.358650000000     0.952800000000     0          
T        Si     0.851400000000     0.289400000000     0.958500000000     0          
T        Si     0.791650000000     0.348100000000     0.919100000000     0          
T        Si     0.814150000000     0.454650000000     0.947350000000     0          
T        Si     0.891750000000     0.464450000000     0.967600000000     0          
T        Si     0.714100000000     0.352150000000     0.901300000000     0          
T        Si     0.653350000000     0.289700000000     0.913200000000     0          
T        Si     0.594250000000     0.360200000000     0.887600000000     0          
T        Si     0.615200000000     0.468500000000     0.902100000000     0          
T        Si     0.691950000000     0.457750000000     0.921200000000     0          
T        Si     0.542850000000     0.277750000000     0.884750000000     0          
O        O      0.811150000000     0.417200000000     0.536750000000     0          
O        O      0.803350000000     0.014800000000     0.541150000000     0          
O        O      0.754100000000     0.459350000000     0.507050000000     0          
O        O      0.808450000000     0.475050000000     0.983250000000     0          
O        O      0.877250000000     0.415800000000     0.550300000000     0          
O        O      0.843150000000     0.331500000000     0.547200000000     0          
O        O      0.844950000000     0.394600000000     0.598000000000     0          
O        O      0.940600000000     0.432600000000     0.550850000000     0          
O        O      0.893450000000     0.478850000000     0.506700000000     0          
O        O      0.904650000000     0.003150000000     0.571550000000     0          
O        O      0.964850000000     0.340350000000     0.558050000000     0          
O        O      0.503250000000     0.416650000000     0.582600000000     0          
O        O      0.953700000000     0.389350000000     0.610900000000     0          
O        O      0.903750000000     0.304550000000     0.542500000000     0          
O        O      0.949400000000     0.257400000000     0.587150000000     0          
O        O      0.952700000000     0.256750000000     0.522700000000     0          
O        O      0.852300000000     0.272850000000     0.997050000000     0          
O        O      0.862450000000     0.238050000000     0.559550000000     0          
O        O      0.565650000000     0.431850000000     0.577000000000     0          
O        O      0.553350000000     0.395500000000     0.633700000000     0          
O        O      0.542650000000     0.339550000000     0.579250000000     0          
O        O      0.629050000000     0.412650000000     0.601550000000     0          
O        O      0.601050000000     0.492900000000     0.621700000000     0          
O        O      0.665400000000     0.331150000000     0.613100000000     0          
O        O      0.694750000000     0.419850000000     0.616150000000     0          
O        O      0.662500000000     0.393450000000     0.663350000000     0          
O        O      0.603900000000     0.304350000000     0.584750000000     0          
O        O      0.640100000000     0.248100000000     0.632100000000     0          
O        O      0.558800000000     0.250450000000     0.606650000000     0          
O        O      0.711300000000     0.000800000000     0.653500000000     0          
O        O      0.753700000000     0.461350000000     0.619700000000     0          
O        O      0.693400000000     0.026200000000     0.709950000000     0          
O        O      0.690800000000     0.424750000000     0.724650000000     0          
O        O      0.625400000000     0.412750000000     0.707950000000     0          
O        O      0.664950000000     0.333950000000     0.715750000000     0          
O        O      0.563400000000     0.446050000000     0.690650000000     0          
O        O      0.613950000000     0.006150000000     0.688050000000     0          
O        O      0.547600000000     0.350250000000     0.690250000000     0          
O        O      0.502450000000     0.416400000000     0.661650000000     0          
O        O      0.603800000000     0.298450000000     0.698700000000     0          
O        O      0.546600000000     0.257300000000     0.667850000000     0          
O        O      0.654950000000     0.238900000000     0.698700000000     0          
O        O      0.940350000000     0.440500000000     0.661950000000     0          
O        O      0.959800000000     0.346100000000     0.670550000000     0          
O        O      0.878050000000     0.413350000000     0.660250000000     0          
O        O      0.842250000000     0.331300000000     0.647250000000     0          
O        O      0.812250000000     0.419950000000     0.644850000000     0          
O        O      0.903350000000     0.296050000000     0.651350000000     0          
T        Si     0.794150000000     0.466400000000     0.517050000000     0          
T        Si     0.844150000000     0.389800000000     0.558100000000     0          
T        Si     0.903950000000     0.457900000000     0.545000000000     0          
T        Si     0.965550000000     0.394900000000     0.575450000000     0          
T        Si     0.942850000000     0.289600000000     0.552650000000     0          
T        Si     0.865300000000     0.286600000000     0.536550000000     0          
T        Si     0.541150000000     0.396100000000     0.593000000000     0          
T        Si     0.602100000000     0.456850000000     0.589900000000     0          
T        Si     0.663100000000     0.389200000000     0.623700000000     0          
T        Si     0.641200000000     0.284100000000     0.600250000000     0          
T        Si     0.564750000000     0.289750000000     0.578200000000     0          
T        Si     0.714800000000     0.472300000000     0.619200000000     0          
T        Si     0.660900000000     0.391350000000     0.702800000000     0          
T        Si     0.601400000000     0.460600000000     0.708500000000     0          
T        Si     0.541650000000     0.401900000000     0.669100000000     0          
T        Si     0.564150000000     0.295350000000     0.697350000000     0          
T        Si     0.641750000000     0.285550000000     0.717600000000     0          
T        Si     0.964100000000     0.397850000000     0.651300000000     0          
T        Si     0.903350000000     0.460300000000     0.663200000000     0          
T        Si     0.844250000000     0.389800000000     0.637600000000     0          
T        Si     0.865200000000     0.281500000000     0.652100000000     0          
T        Si     0.941950000000     0.292250000000     0.671200000000     0          
T        Si     0.792850000000     0.472250000000     0.634750000000     0          
O        O      0.811150000000     0.082800000000     0.786750000000     0          
O        O      0.803350000000     0.485200000000     0.791150000000     0          
O        O      0.754100000000     0.040650000000     0.757050000000     0          
O        O      0.808450000000     0.024950000000     0.733250000000     0          
O        O      0.877250000000     0.084200000000     0.800300000000     0          
O        O      0.843150000000     0.168500000000     0.797200000000     0          
O        O      0.844950000000     0.105400000000     0.848000000000     0          
O        O      0.940600000000     0.067400000000     0.800850000000     0          
O        O      0.893450000000     0.021150000000     0.756700000000     0          
O        O      0.904650000000     0.496850000000     0.821550000000     0          
O        O      0.964850000000     0.159650000000     0.808050000000     0          
O        O      0.503250000000     0.083350000000     0.832600000000     0          
O        O      0.953700000000     0.110650000000     0.860900000000     0          
O        O      0.903750000000     0.195450000000     0.792500000000     0          
O        O      0.949400000000     0.242600000000     0.837150000000     0          
O        O      0.952700000000     0.243250000000     0.772700000000     0          
O        O      0.852300000000     0.227150000000     0.747050000000     0          
O        O      0.862450000000     0.261950000000     0.809550000000     0          
O        O      0.565650000000     0.068150000000     0.827000000000     0          
O        O      0.553350000000     0.104500000000     0.883700000000     0          
O        O      0.542650000000     0.160450000000     0.829250000000     0          
O        O      0.629050000000     0.087350000000     0.851550000000     0          
O        O      0.601050000000     0.007100000000     0.871700000000     0          
O        O      0.665400000000     0.168850000000     0.863100000000     0          
O        O      0.694750000000     0.080150000000     0.866150000000     0          
O        O      0.662500000000     0.106550000000     0.913350000000     0          
O        O      0.603900000000     0.195650000000     0.834750000000     0          
O        O      0.640100000000     0.251900000000     0.882100000000     0          
O        O      0.558800000000     0.249550000000     0.856650000000     0          
O        O      0.711300000000     0.499200000000     0.903500000000     0          
O        O      0.753700000000     0.038650000000     0.869700000000     0          
O        O      0.693400000000     0.473800000000     0.959950000000     0          
O        O      0.690800000000     0.075250000000     0.974650000000     0          
O        O      0.625400000000     0.087250000000     0.957950000000     0          
O        O      0.664950000000     0.166050000000     0.965750000000     0          
O        O      0.563400000000     0.053950000000     0.940650000000     0          
O        O      0.613950000000     0.493850000000     0.938050000000     0          
O        O      0.547600000000     0.149750000000     0.940250000000     0          
O        O      0.502450000000     0.083600000000     0.911650000000     0          
O        O      0.603800000000     0.201550000000     0.948700000000     0          
O        O      0.546600000000     0.242700000000     0.917850000000     0          
O        O      0.654950000000     0.261100000000     0.948700000000     0          
O        O      0.940350000000     0.059500000000     0.911950000000     0          
O        O      0.959800000000     0.153900000000     0.920550000000     0          
O        O      0.878050000000     0.086650000000     0.910250000000     0          
O        O      0.842250000000     0.168700000000     0.897250000000     0          
O        O      0.812250000000     0.080050000000     0.894850000000     0          
O        O      0.903350000000     0.203950000000     0.901350000000     0          
T        Si     0.794150000000     0.033600000000     0.767050000000     0          
T        Si     0.844150000000     0.110200000000     0.808100000000     0          
T        Si     0.903950000000     0.042100000000     0.795000000000     0          
T        Si     0.965550000000     0.105100000000     0.825450000000     0          
T        Si     0.942850000000     0.210400000000     0.802650000000     0          
T        Si     0.865300000000     0.213400000000     0.786550000000     0          
T        Si     0.541150000000     0.103900000000     0.843000000000     0          
T        Si     0.602100000000     0.043150000000     0.839900000000     0          
T        Si     0.663100000000     0.110800000000     0.873700000000     0          
T        Si     0.641200000000     0.215900000000     0.850250000000     0          
T        Si     0.564750000000     0.210250000000     0.828200000000     0          
T        Si     0.714800000000     0.027700000000     0.869200000000     0          
T        Si     0.660900000000     0.108650000000     0.952800000000     0          
T        Si     0.601400000000     0.039400000000     0.958500000000     0          
T        Si     0.541650000000     0.098100000000     0.919100000000     0          
T        Si     0.564150000000     0.204650000000     0.947350000000     0          
T        Si     0.641750000000     0.214450000000     0.967600000000     0          
T        Si     0.964100000000     0.102150000000     0.901300000000     0          
T        Si     0.903350000000     0.039700000000     0.913200000000     0          
T        Si     0.844250000000     0.110200000000     0.887600000000     0          
T        Si     0.865200000000     0.218500000000     0.902100000000     0          
T        Si     0.941950000000     0.207750000000     0.921200000000     0          
T        Si     0.792850000000     0.027750000000     0.884750000000     0          
O        O      0.561150000000     0.667200000000     0.036750000000     0          
O        O      0.553350000000     0.764800000000     0.041150000000     0          
O        O      0.504100000000     0.709350000000     0.007050000000     0          
O        O      0.558450000000     0.725050000000     0.483250000000     0          
O        O      0.627250000000     0.665800000000     0.050300000000     0          
O        O      0.593150000000     0.581500000000     0.047200000000     0          
O        O      0.594950000000     0.644600000000     0.098000000000     0          
O        O      0.690600000000     0.682600000000     0.050850000000     0          
O        O      0.643450000000     0.728850000000     0.006700000000     0          
O        O      0.654650000000     0.753150000000     0.071550000000     0          
O        O      0.714850000000     0.590350000000     0.058050000000     0          
O        O      0.753250000000     0.666650000000     0.082600000000     0          
O        O      0.703700000000     0.639350000000     0.110900000000     0          
O        O      0.653750000000     0.554550000000     0.042500000000     0          
O        O      0.699400000000     0.507400000000     0.087150000000     0          
O        O      0.702700000000     0.506750000000     0.022700000000     0          
O        O      0.602300000000     0.522850000000     0.497050000000     0          
O        O      0.612450000000     0.988050000000     0.059550000000     0          
O        O      0.815650000000     0.681850000000     0.077000000000     0          
O        O      0.803350000000     0.645500000000     0.133700000000     0          
O        O      0.792650000000     0.589550000000     0.079250000000     0          
O        O      0.879050000000     0.662650000000     0.101550000000     0          
O        O      0.851050000000     0.742900000000     0.121700000000     0          
O        O      0.915400000000     0.581150000000     0.113100000000     0          
O        O      0.944750000000     0.669850000000     0.116150000000     0          
O        O      0.912500000000     0.643450000000     0.163350000000     0          
O        O      0.853900000000     0.554350000000     0.084750000000     0          
O        O      0.890100000000     0.998100000000     0.132100000000     0          
O        O      0.808800000000     0.500450000000     0.106650000000     0          
O        O      0.961300000000     0.750800000000     0.153500000000     0          
O        O      0.503700000000     0.711350000000     0.119700000000     0          
O        O      0.943400000000     0.776200000000     0.209950000000     0          
O        O      0.940800000000     0.674750000000     0.224650000000     0          
O        O      0.875400000000     0.662750000000     0.207950000000     0          
O        O      0.914950000000     0.583950000000     0.215750000000     0          
O        O      0.813400000000     0.696050000000     0.190650000000     0          
O        O      0.863950000000     0.756150000000     0.188050000000     0          
O        O      0.797600000000     0.600250000000     0.190250000000     0          
O        O      0.752450000000     0.666400000000     0.161650000000     0          
O        O      0.853800000000     0.548450000000     0.198700000000     0          
O        O      0.796600000000     0.507300000000     0.167850000000     0          
O        O      0.904950000000     0.988900000000     0.198700000000     0          
O        O      0.690350000000     0.690500000000     0.161950000000     0          
O        O      0.709800000000     0.596100000000     0.170550000000     0          
O        O      0.628050000000     0.663350000000     0.160250000000     0          
O        O      0.592250000000     0.581300000000     0.147250000000     0          
O        O      0.562250000000     0.669950000000     0.144850000000     0          
O        O      0.653350000000     0.546050000000     0.151350000000     0          
T        Si     0.544150000000     0.716400000000     0.017050000000     0          
T        Si     0.594150000000     0.639800000000     0.058100000000     0          
T        Si     0.653950000000     0.707900000000     0.045000000000     0          
T        Si     0.715550000000     0.644900000000     0.075450000000     0          
T        Si     0.692850000000     0.539600000000     0.052650000000     0          
T        Si     0.615300000000     0.536600000000     0.036550000000     0          
T        Si     0.791150000000     0.646100000000     0.093000000000     0          
T        Si     0.852100000000     0.706850000000     0.089900000000     0          
T        Si     0.913100000000     0.639200000000     0.123700000000     0          
T        Si     0.891200000000     0.534100000000     0.100250000000     0          
T        Si     0.814750000000     0.539750000000     0.078200000000     0          
T        Si     0.964800000000     0.722300000000     0.119200000000     0          
T        Si     0.910900000000     0.641350000000     0.202800000000     0          
T        Si     0.851400000000     0.710600000000     0.208500000000     0          
T        Si     0.791650000000     0.651900000000     0.169100000000     0          
T        Si     0.814150000000     0.545350000000     0.197350000000     0          
T        Si     0.891750000000     0.535550000000     0.217600000000     0          
T        Si     0.714100000000     0.647850000000     0.151300000000     0          
T        Si     0.653350000000     0.710300000000     0.163200000000     0          
T        Si     0.594250000000     0.639800000000     0.137600000000     0          
T        Si     0.615200000000     0.531500000000     0.152100000000     0          
T        Si     0.691950000000     0.542250000000     0.171200000000     0          
T        Si     0.542850000000     0.722250000000     0.134750000000     0          
O        O      0.561150000000     0.832800000000     0.286750000000     0          
O        O      0.553350000000     0.735200000000     0.291150000000     0          
O        O      0.504100000000     0.790650000000     0.257050000000     0          
O        O      0.558450000000     0.774950000000     0.233250000000     0          
O        O      0.627250000000     0.834200000000     0.300300000000     0          
O        O      0.593150000000     0.918500000000     0.297200000000     0          
O        O      0.594950000000     0.855400000000     0.348000000000     0          
O        O      0.690600000000     0.817400000000     0.300850000000     0          
O        O      0.643450000000     0.771150000000     0.256700000000     0          
O        O      0.654650000000     0.746850000000     0.321550000000     0          
O        O      0.714850000000     0.909650000000     0.308050000000     0          
O        O      0.753250000000     0.833350000000     0.332600000000     0          
O        O      0.703700000000     0.860650000000     0.360900000000     0          
O        O      0.653750000000     0.945450000000     0.292500000000     0          
O        O      0.699400000000     0.992600000000     0.337150000000     0          
O        O      0.702700000000     0.993250000000     0.272700000000     0          
O        O      0.602300000000     0.977150000000     0.247050000000     0          
O        O      0.612450000000     0.511950000000     0.309550000000     0          
O        O      0.815650000000     0.818150000000     0.327000000000     0          
O        O      0.803350000000     0.854500000000     0.383700000000     0          
O        O      0.792650000000     0.910450000000     0.329250000000     0          
O        O      0.879050000000     0.837350000000     0.351550000000     0          
O        O      0.851050000000     0.757100000000     0.371700000000     0          
O        O      0.915400000000     0.918850000000     0.363100000000     0          
O        O      0.944750000000     0.830150000000     0.366150000000     0          
O        O      0.912500000000     0.856550000000     0.413350000000     0          
O        O      0.853900000000     0.945650000000     0.334750000000     0          
O        O      0.890100000000     0.501900000000     0.382100000000     0          
O        O      0.808800000000     0.999550000000     0.356650000000     0          
O        O      0.961300000000     0.749200000000     0.403500000000     0          
O        O      0.503700000000     0.788650000000     0.369700000000     0          
O        O      0.943400000000     0.723800000000     0.459950000000     0          
O        O      0.940800000000     0.825250000000     0.474650000000     0          
O        O      0.875400000000     0.837250000000     0.457950000000     0          
O        O      0.914950000000     0.916050000000     0.465750000000     0          
O        O      0.813400000000     0.803950000000     0.440650000000     0          
O        O      0.863950000000     0.743850000000     0.438050000000     0          
O        O      0.797600000000     0.899750000000     0.440250000000     0          
O        O      0.752450000000     0.833600000000     0.411650000000     0          
O        O      0.853800000000     0.951550000000     0.448700000000     0          
O        O      0.796600000000     0.992700000000     0.417850000000     0          
O        O      0.904950000000     0.511100000000     0.448700000000     0          
O        O      0.690350000000     0.809500000000     0.411950000000     0          
O        O      0.709800000000     0.903900000000     0.420550000000     0          
O        O      0.628050000000     0.836650000000     0.410250000000     0          
O        O      0.592250000000     0.918700000000     0.397250000000     0          
O        O      0.562250000000     0.830050000000     0.394850000000     0          
O        O      0.653350000000     0.953950000000     0.401350000000     0          
T        Si     0.544150000000     0.783600000000     0.267050000000     0          
T        Si     0.594150000000     0.860200000000     0.308100000000     0          
T        Si     0.653950000000     0.792100000000     0.295000000000     0          
T        Si     0.715550000000     0.855100000000     0.325450000000     0          
T        Si     0.692850000000     0.960400000000     0.302650000000     0          
T        Si     0.615300000000     0.963400000000     0.286550000000     0          
T        Si     0.791150000000     0.853900000000     0.343000000000     0          
T        Si     0.852100000000     0.793150000000     0.339900000000     0          
T        Si     0.913100000000     0.860800000000     0.373700000000     0          
T        Si     0.891200000000     0.965900000000     0.350250000000     0          
T        Si     0.814750000000     0.960250000000     0.328200000000     0          
T        Si     0.964800000000     0.777700000000     0.369200000000     0          
T        Si     0.910900000000     0.858650000000     0.452800000000     0          
T        Si     0.851400000000     0.789400000000     0.458500000000     0          
T        Si     0.791650000000     0.848100000000     0.419100000000     0          
T        Si     0.814150000000     0.954650000000     0.447350000000     0          
T        Si     0.891750000000     0.964450000000     0.467600000000     0          
T        Si     0.714100000000     0.852150000000     0.401300000000     0          
T        Si     0.653350000000     0.789700000000     0.413200000000     0          
T        Si     0.594250000000     0.860200000000     0.387600000000     0          
T        Si     0.615200000000     0.968500000000     0.402100000000     0          
T        Si     0.691950000000     0.957750000000     0.421200000000     0          
T        Si     0.542850000000     0.777750000000     0.384750000000     0          
O        O      0.811150000000     0.917200000000     0.036750000000     0          
O        O      0.803350000000     0.514800000000     0.041150000000     0          
O        O      0.754100000000     0.959350000000     0.007050000000     0          
O        O      0.808450000000     0.975050000000     0.483250000000     0          
O        O      0.877250000000     0.915800000000     0.050300000000     0          
O        O      0.843150000000     0.831500000000     0.047200000000     0          
O        O      0.844950000000     0.894600000000     0.098000000000     0          
O        O      0.940600000000     0.932600000000     0.050850000000     0          
O        O      0.893450000000     0.978850000000     0.006700000000     0          
O        O      0.904650000000     0.503150000000     0.071550000000     0          
O        O      0.964850000000     0.840350000000     0.058050000000     0          
O        O      0.503250000000     0.916650000000     0.082600000000     0          
O        O      0.953700000000     0.889350000000     0.110900000000     0          
O        O      0.903750000000     0.804550000000     0.042500000000     0          
O        O      0.949400000000     0.757400000000     0.087150000000     0          
O        O      0.952700000000     0.756750000000     0.022700000000     0          
O        O      0.852300000000     0.772850000000     0.497050000000     0          
O        O      0.862450000000     0.738050000000     0.059550000000     0          
O        O      0.565650000000     0.931850000000     0.077000000000     0          
O        O      0.553350000000     0.895500000000     0.133700000000     0          
O        O      0.542650000000     0.839550000000     0.079250000000     0          
O        O      0.629050000000     0.912650000000     0.101550000000     0          
O        O      0.601050000000     0.992900000000     0.121700000000     0          
O        O      0.665400000000     0.831150000000     0.113100000000     0          
O        O      0.694750000000     0.919850000000     0.116150000000     0          
O        O      0.662500000000     0.893450000000     0.163350000000     0          
O        O      0.603900000000     0.804350000000     0.084750000000     0          
O        O      0.640100000000     0.748100000000     0.132100000000     0          
O        O      0.558800000000     0.750450000000     0.106650000000     0          
O        O      0.711300000000     0.500800000000     0.153500000000     0          
O        O      0.753700000000     0.961350000000     0.119700000000     0          
O        O      0.693400000000     0.526200000000     0.209950000000     0          
O        O      0.690800000000     0.924750000000     0.224650000000     0          
O        O      0.625400000000     0.912750000000     0.207950000000     0          
O        O      0.664950000000     0.833950000000     0.215750000000     0          
O        O      0.563400000000     0.946050000000     0.190650000000     0          
O        O      0.613950000000     0.506150000000     0.188050000000     0          
O        O      0.547600000000     0.850250000000     0.190250000000     0          
O        O      0.502450000000     0.916400000000     0.161650000000     0          
O        O      0.603800000000     0.798450000000     0.198700000000     0          
O        O      0.546600000000     0.757300000000     0.167850000000     0          
O        O      0.654950000000     0.738900000000     0.198700000000     0          
O        O      0.940350000000     0.940500000000     0.161950000000     0          
O        O      0.959800000000     0.846100000000     0.170550000000     0          
O        O      0.878050000000     0.913350000000     0.160250000000     0          
O        O      0.842250000000     0.831300000000     0.147250000000     0          
O        O      0.812250000000     0.919950000000     0.144850000000     0          
O        O      0.903350000000     0.796050000000     0.151350000000     0          
T        Si     0.794150000000     0.966400000000     0.017050000000     0          
T        Si     0.844150000000     0.889800000000     0.058100000000     0          
T        Si     0.903950000000     0.957900000000     0.045000000000     0          
T        Si     0.965550000000     0.894900000000     0.075450000000     0          
T        Si     0.942850000000     0.789600000000     0.052650000000     0          
T        Si     0.865300000000     0.786600000000     0.036550000000     0          
T        Si     0.541150000000     0.896100000000     0.093000000000     0          
T        Si     0.602100000000     0.956850000000     0.089900000000     0          
T        Si     0.663100000000     0.889200000000     0.123700000000     0          
T        Si     0.641200000000     0.784100000000     0.100250000000     0          
T        Si     0.564750000000     0.789750000000     0.078200000000     0          
T        Si     0.714800000000     0.972300000000     0.119200000000     0          
T        Si     0.660900000000     0.891350000000     0.202800000000     0          
T        Si     0.601400000000     0.960600000000     0.208500000000     0          
T        Si     0.541650000000     0.901900000000     0.169100000000     0          
T        Si     0.564150000000     0.795350000000     0.197350000000     0          
T        Si     0.641750000000     0.785550000000     0.217600000000     0          
T        Si     0.964100000000     0.897850000000     0.151300000000     0          
T        Si     0.903350000000     0.960300000000     0.163200000000     0          
T        Si     0.844250000000     0.889800000000     0.137600000000     0          
T        Si     0.865200000000     0.781500000000     0.152100000000     0          
T        Si     0.941950000000     0.792250000000     0.171200000000     0          
T        Si     0.792850000000     0.972250000000     0.134750000000     0          
O        O      0.811150000000     0.582800000000     0.286750000000     0          
O        O      0.803350000000     0.985200000000     0.291150000000     0          
O        O      0.754100000000     0.540650000000     0.257050000000     0          
O        O      0.808450000000     0.524950000000     0.233250000000     0          
O        O      0.877250000000     0.584200000000     0.300300000000     0          
O        O      0.843150000000     0.668500000000     0.297200000000     0          
O        O      0.844950000000     0.605400000000     0.348000000000     0          
O        O      0.940600000000     0.567400000000     0.300850000000     0          
O        O      0.893450000000     0.521150000000     0.256700000000     0          
O        O      0.904650000000     0.996850000000     0.321550000000     0          
O        O      0.964850000000     0.659650000000     0.308050000000     0          
O        O      0.503250000000     0.583350000000     0.332600000000     0          
O        O      0.953700000000     0.610650000000     0.360900000000     0          
O        O      0.903750000000     0.695450000000     0.292500000000     0          
O        O      0.949400000000     0.742600000000     0.337150000000     0          
O        O      0.952700000000     0.743250000000     0.272700000000     0          
O        O      0.852300000000     0.727150000000     0.247050000000     0          
O        O      0.862450000000     0.761950000000     0.309550000000     0          
O        O      0.565650000000     0.568150000000     0.327000000000     0          
O        O      0.553350000000     0.604500000000     0.383700000000     0          
O        O      0.542650000000     0.660450000000     0.329250000000     0          
O        O      0.629050000000     0.587350000000     0.351550000000     0          
O        O      0.601050000000     0.507100000000     0.371700000000     0          
O        O      0.665400000000     0.668850000000     0.363100000000     0          
O        O      0.694750000000     0.580150000000     0.366150000000     0          
O        O      0.662500000000     0.606550000000     0.413350000000     0          
O        O      0.603900000000     0.695650000000     0.334750000000     0          
O        O      0.640100000000     0.751900000000     0.382100000000     0          
O        O      0.558800000000     0.749550000000     0.356650000000     0          
O        O      0.711300000000     0.999200000000     0.403500000000     0          
O        O      0.753700000000     0.538650000000     0.369700000000     0          
O        O      0.693400000000     0.973800000000     0.459950000000     0          
O        O      0.690800000000     0.575250000000     0.474650000000     0          
O        O      0.625400000000     0.587250000000     0.457950000000     0          
O        O      0.664950000000     0.666050000000     0.465750000000     0          
O        O      0.563400000000     0.553950000000     0.440650000000     0          
O        O      0.613950000000     0.993850000000     0.438050000000     0          
O        O      0.547600000000     0.649750000000     0.440250000000     0          
O        O      0.502450000000     0.583600000000     0.411650000000     0          
O        O      0.603800000000     0.701550000000     0.448700000000     0          
O        O      0.546600000000     0.742700000000     0.417850000000     0          
O        O      0.654950000000     0.761100000000     0.448700000000     0          
O        O      0.940350000000     0.559500000000     0.411950000000     0          
O        O      0.959800000000     0.653900000000     0.420550000000     0          
O        O      0.878050000000     0.586650000000     0.410250000000     0          
O        O      0.842250000000     0.668700000000     0.397250000000     0          
O        O      0.812250000000     0.580050000000     0.394850000000     0          
O        O      0.903350000000     0.703950000000     0.401350000000     0          
T        Si     0.794150000000     0.533600000000     0.267050000000     0          
T        Si     0.844150000000     0.610200000000     0.308100000000     0          
T        Si     0.903950000000     0.542100000000     0.295000000000     0          
T        Si     0.965550000000     0.605100000000     0.325450000000     0          
T        Si     0.942850000000     0.710400000000     0.302650000000     0          
T        Si     0.865300000000     0.713400000000     0.286550000000     0          
T        Si     0.541150000000     0.603900000000     0.343000000000     0          
T        Si     0.602100000000     0.543150000000     0.339900000000     0          
T        Si     0.663100000000     0.610800000000     0.373700000000     0          
T        Si     0.641200000000     0.715900000000     0.350250000000     0          
T        Si     0.564750000000     0.710250000000     0.328200000000     0          
T        Si     0.714800000000     0.527700000000     0.369200000000     0          
T        Si     0.660900000000     0.608650000000     0.452800000000     0          
T        Si     0.601400000000     0.539400000000     0.458500000000     0          
T        Si     0.541650000000     0.598100000000     0.419100000000     0          
T        Si     0.564150000000     0.704650000000     0.447350000000     0          
T        Si     0.641750000000     0.714450000000     0.467600000000     0          
T        Si     0.964100000000     0.602150000000     0.401300000000     0          
T        Si     0.903350000000     0.539700000000     0.413200000000     0          
T        Si     0.844250000000     0.610200000000     0.387600000000     0          
T        Si     0.865200000000     0.718500000000     0.402100000000     0          
T        Si     0.941950000000     0.707750000000     0.421200000000     0          
T        Si     0.792850000000     0.527750000000     0.384750000000     0          
O        O      0.561150000000     0.667200000000     0.536750000000     0          
O        O      0.553350000000     0.764800000000     0.541150000000     0          
O        O      0.504100000000     0.709350000000     0.507050000000     0          
O        O      0.558450000000     0.725050000000     0.983250000000     0          
O        O      0.627250000000     0.665800000000     0.550300000000     0          
O        O      0.593150000000     0.581500000000     0.547200000000     0          
O        O      0.594950000000     0.644600000000     0.598000000000     0          
O        O      0.690600000000     0.682600000000     0.550850000000     0          
O        O      0.643450000000     0.728850000000     0.506700000000     0          
O        O      0.654650000000     0.753150000000     0.571550000000     0          
O        O      0.714850000000     0.590350000000     0.558050000000     0          
O        O      0.753250000000     0.666650000000     0.582600000000     0          
O        O      0.703700000000     0.639350000000     0.610900000000     0          
O        O      0.653750000000     0.554550000000     0.542500000000     0          
O        O      0.699400000000     0.507400000000     0.587150000000     0          
O        O      0.702700000000     0.506750000000     0.522700000000     0          
O        O      0.602300000000     0.522850000000     0.997050000000     0          
O        O      0.612450000000     0.988050000000     0.559550000000     0          
O        O      0.815650000000     0.681850000000     0.577000000000     0          
O        O      0.803350000000     0.645500000000     0.633700000000     0          
O        O      0.792650000000     0.589550000000     0.579250000000     0          
O        O      0.879050000000     0.662650000000     0.601550000000     0          
O        O      0.851050000000     0.742900000000     0.621700000000     0          
O        O      0.915400000000     0.581150000000     0.613100000000     0          
O        O      0.944750000000     0.669850000000     0.616150000000     0          
O        O      0.912500000000     0.643450000000     0.663350000000     0          
O        O      0.853900000000     0.554350000000     0.584750000000     0          
O        O      0.890100000000     0.998100000000     0.632100000000     0          
O        O      0.808800000000     0.500450000000     0.606650000000     0          
O        O      0.961300000000     0.750800000000     0.653500000000     0          
O        O      0.503700000000     0.711350000000     0.619700000000     0          
O        O      0.943400000000     0.776200000000     0.709950000000     0          
O        O      0.940800000000     0.674750000000     0.724650000000     0          
O        O      0.875400000000     0.662750000000     0.707950000000     0          
O        O      0.914950000000     0.583950000000     0.715750000000     0          
O        O      0.813400000000     0.696050000000     0.690650000000     0          
O        O      0.863950000000     0.756150000000     0.688050000000     0          
O        O      0.797600000000     0.600250000000     0.690250000000     0          
O        O      0.752450000000     0.666400000000     0.661650000000     0          
O        O      0.853800000000     0.548450000000     0.698700000000     0          
O        O      0.796600000000     0.507300000000     0.667850000000     0          
O        O      0.904950000000     0.988900000000     0.698700000000     0          
O        O      0.690350000000     0.690500000000     0.661950000000     0          
O        O      0.709800000000     0.596100000000     0.670550000000     0          
O        O      0.628050000000     0.663350000000     0.660250000000     0          
O        O      0.592250000000     0.581300000000     0.647250000000     0          
O        O      0.562250000000     0.669950000000     0.644850000000     0          
O        O      0.653350000000     0.546050000000     0.651350000000     0          
T        Si     0.544150000000     0.716400000000     0.517050000000     0          
T        Si     0.594150000000     0.639800000000     0.558100000000     0          
T        Si     0.653950000000     0.707900000000     0.545000000000     0          
T        Si     0.715550000000     0.644900000000     0.575450000000     0          
T        Si     0.692850000000     0.539600000000     0.552650000000     0          
T        Si     0.615300000000     0.536600000000     0.536550000000     0          
T        Si     0.791150000000     0.646100000000     0.593000000000     0          
T        Si     0.852100000000     0.706850000000     0.589900000000     0          
T        Si     0.913100000000     0.639200000000     0.623700000000     0          
T        Si     0.891200000000     0.534100000000     0.600250000000     0          
T        Si     0.814750000000     0.539750000000     0.578200000000     0          
T        Si     0.964800000000     0.722300000000     0.619200000000     0          
T        Si     0.910900000000     0.641350000000     0.702800000000     0          
T        Si     0.851400000000     0.710600000000     0.708500000000     0          
T        Si     0.791650000000     0.651900000000     0.669100000000     0          
T        Si     0.814150000000     0.545350000000     0.697350000000     0          
T        Si     0.891750000000     0.535550000000     0.717600000000     0          
T        Si     0.714100000000     0.647850000000     0.651300000000     0          
T        Si     0.653350000000     0.710300000000     0.663200000000     0          
T        Si     0.594250000000     0.639800000000     0.637600000000     0          
T        Si     0.615200000000     0.531500000000     0.652100000000     0          
T        Si     0.691950000000     0.542250000000     0.671200000000     0          
T        Si     0.542850000000     0.722250000000     0.634750000000     0          
O        O      0.561150000000     0.832800000000     0.786750000000     0          
O        O      0.553350000000     0.735200000000     0.791150000000     0          
O        O      0.504100000000     0.790650000000     0.757050000000     0          
O        O      0.558450000000     0.774950000000     0.733250000000     0          
O        O      0.627250000000     0.834200000000     0.800300000000     0          
O        O      0.593150000000     0.918500000000     0.797200000000     0          
O        O      0.594950000000     0.855400000000     0.848000000000     0          
O        O      0.690600000000     0.817400000000     0.800850000000     0          
O        O      0.643450000000     0.771150000000     0.756700000000     0          
O        O      0.654650000000     0.746850000000     0.821550000000     0          
O        O      0.714850000000     0.909650000000     0.808050000000     0          
O        O      0.753250000000     0.833350000000     0.832600000000     0          
O        O      0.703700000000     0.860650000000     0.860900000000     0          
O        O      0.653750000000     0.945450000000     0.792500000000     0          
O        O      0.699400000000     0.992600000000     0.837150000000     0          
O        O      0.702700000000     0.993250000000     0.772700000000     0          
O        O      0.602300000000     0.977150000000     0.747050000000     0          
O        O      0.612450000000     0.511950000000     0.809550000000     0          
O        O      0.815650000000     0.818150000000     0.827000000000     0          
O        O      0.803350000000     0.854500000000     0.883700000000     0          
O        O      0.792650000000     0.910450000000     0.829250000000     0          
O        O      0.879050000000     0.837350000000     0.851550000000     0          
O        O      0.851050000000     0.757100000000     0.871700000000     0          
O        O      0.915400000000     0.918850000000     0.863100000000     0          
O        O      0.944750000000     0.830150000000     0.866150000000     0          
O        O      0.912500000000     0.856550000000     0.913350000000     0          
O        O      0.853900000000     0.945650000000     0.834750000000     0          
O        O      0.890100000000     0.501900000000     0.882100000000     0          
O        O      0.808800000000     0.999550000000     0.856650000000     0          
O        O      0.961300000000     0.749200000000     0.903500000000     0          
O        O      0.503700000000     0.788650000000     0.869700000000     0          
O        O      0.943400000000     0.723800000000     0.959950000000     0          
O        O      0.940800000000     0.825250000000     0.974650000000     0          
O        O      0.875400000000     0.837250000000     0.957950000000     0          
O        O      0.914950000000     0.916050000000     0.965750000000     0          
O        O      0.813400000000     0.803950000000     0.940650000000     0          
O        O      0.863950000000     0.743850000000     0.938050000000     0          
O        O      0.797600000000     0.899750000000     0.940250000000     0          
O        O      0.752450000000     0.833600000000     0.911650000000     0          
O        O      0.853800000000     0.951550000000     0.948700000000     0          
O        O      0.796600000000     0.992700000000     0.917850000000     0          
O        O      0.904950000000     0.511100000000     0.948700000000     0          
O        O      0.690350000000     0.809500000000     0.911950000000     0          
O        O      0.709800000000     0.903900000000     0.920550000000     0          
O        O      0.628050000000     0.836650000000     0.910250000000     0          
O        O      0.592250000000     0.918700000000     0.897250000000     0          
O        O      0.562250000000     0.830050000000     0.894850000000     0          
O        O      0.653350000000     0.953950000000     0.901350000000     0          
T        Si     0.544150000000     0.783600000000     0.767050000000     0          
T        Si     0.594150000000     0.860200000000     0.808100000000     0          
T        Si     0.653950000000     0.792100000000     0.795000000000     0          
T        Si     0.715550000000     0.855100000000     0.825450000000     0          
T        Si     0.692850000000     0.960400000000     0.802650000000     0          
T        Si     0.615300000000     0.963400000000     0.786550000000     0          
T        Si     0.791150000000     0.853900000000     0.843000000000     0          
T        Si     0.852100000000     0.793150000000     0.839900000000     0          
T        Si     0.913100000000     0.860800000000     0.873700000000     0          
T        Si     0.891200000000     0.965900000000     0.850250000000     0          
T        Si     0.814750000000     0.960250000000     0.828200000000     0          
T        Si     0.964800000000     0.777700000000     0.869200000000     0          
T        Si     0.910900000000     0.858650000000     0.952800000000     0          
T        Si     0.851400000000     0.789400000000     0.958500000000     0          
T        Si     0.791650000000     0.848100000000     0.919100000000     0          
T        Si     0.814150000000     0.954650000000     0.947350000000     0          
T        Si     0.891750000000     0.964450000000     0.967600000000     0          
T        Si     0.714100000000     0.852150000000     0.901300000000     0          
T        Si     0.653350000000     0.789700000000     0.913200000000     0          
T        Si     0.594250000000     0.860200000000     0.887600000000     0          
T        Si     0.615200000000     0.968500000000     0.902100000000     0          
T        Si     0.691950000000     0.957750000000     0.921200000000     0          
T        Si     0.542850000000     0.777750000000     0.884750000000     0          
O        O      0.811150000000     0.917200000000     0.536750000000     0          
O        O      0.803350000000     0.514800000000     0.541150000000     0          
O        O      0.754100000000     0.959350000000     0.507050000000     0          
O        O      0.808450000000     0.975050000000     0.983250000000     0          
O        O      0.877250000000     0.915800000000     0.550300000000     0          
O        O      0.843150000000     0.831500000000     0.547200000000     0          
O        O      0.844950000000     0.894600000000     0.598000000000     0          
O        O      0.940600000000     0.932600000000     0.550850000000     0          
O        O      0.893450000000     0.978850000000     0.506700000000     0          
O        O      0.904650000000     0.503150000000     0.571550000000     0          
O        O      0.964850000000     0.840350000000     0.558050000000     0          
O        O      0.503250000000     0.916650000000     0.582600000000     0          
O        O      0.953700000000     0.889350000000     0.610900000000     0          
O        O      0.903750000000     0.804550000000     0.542500000000     0          
O        O      0.949400000000     0.757400000000     0.587150000000     0          
O        O      0.952700000000     0.756750000000     0.522700000000     0          
O        O      0.852300000000     0.772850000000     0.997050000000     0          
O        O      0.862450000000     0.738050000000     0.559550000000     0          
O        O      0.565650000000     0.931850000000     0.577000000000     0          
O        O      0.553350000000     0.895500000000     0.633700000000     0          
O        O      0.542650000000     0.839550000000     0.579250000000     0          
O        O      0.629050000000     0.912650000000     0.601550000000     0          
O        O      0.601050000000     0.992900000000     0.621700000000     0          
O        O      0.665400000000     0.831150000000     0.613100000000     0          
O        O      0.694750000000     0.919850000000     0.616150000000     0          
O        O      0.662500000000     0.893450000000     0.663350000000     0          
O        O      0.603900000000     0.804350000000     0.584750000000     0          
O        O      0.640100000000     0.748100000000     0.632100000000     0          
O        O      0.558800000000     0.750450000000     0.606650000000     0          
O        O      0.711300000000     0.500800000000     0.653500000000     0          
O        O      0.753700000000     0.961350000000     0.619700000000     0          
O        O      0.693400000000     0.526200000000     0.709950000000     0          
O        O      0.690800000000     0.924750000000     0.724650000000     0          
O        O      0.625400000000     0.912750000000     0.707950000000     0          
O        O      0.664950000000     0.833950000000     0.715750000000     0          
O        O      0.563400000000     0.946050000000     0.690650000000     0          
O        O      0.613950000000     0.506150000000     0.688050000000     0          
O        O      0.547600000000     0.850250000000     0.690250000000     0          
O        O      0.502450000000     0.916400000000     0.661650000000     0          
O        O      0.603800000000     0.798450000000     0.698700000000     0          
O        O      0.546600000000     0.757300000000     0.667850000000     0          
O        O      0.654950000000     0.738900000000     0.698700000000     0          
O        O      0.940350000000     0.940500000000     0.661950000000     0          
O        O      0.959800000000     0.846100000000     0.670550000000     0          
O        O      0.878050000000     0.913350000000     0.660250000000     0          
O        O      0.842250000000     0.831300000000     0.647250000000     0          
O        O      0.812250000000     0.919950000000     0.644850000000     0          
O        O      0.903350000000     0.796050000000     0.651350000000     0          
T        Si     0.794150000000     0.966400000000     0.517050000000     0          
T        Si     0.844150000000     0.889800000000     0.558100000000     0          
T        Si     0.903950000000     0.957900000000     0.545000000000     0          
T        Si     0.965550000000     0.894900000000     0.575450000000     0          
T        Si     0.942850000000     0.789600000000     0.552650000000     0          
T        Si     0.865300000000     0.786600000000     0.536550000000     0          
T        Si     0.541150000000     0.896100000000     0.593000000000     0          
T        Si     0.602100000000     0.956850000000     0.589900000000     0          
T        Si     0.663100000000     0.889200000000     0.623700000000     0          
T        Si     0.641200000000     0.784100000000     0.600250000000     0          
T        Si     0.564750000000     0.789750000000     0.578200000000     0          
T        Si     0.714800000000     0.972300000000     0.619200000000     0          
T        Si     0.660900000000     0.891350000000     0.702800000000     0          
T        Si     0.601400000000     0.960600000000     0.708500000000     0          
T        Si     0.541650000000     0.901900000000     0.669100000000     0          
T        Si     0.564150000000     0.795350000000     0.697350000000     0          
T        Si     0.641750000000     0.785550000000     0.717600000000     0          
T        Si     0.964100000000     0.897850000000     0.651300000000     0          
T        Si     0.903350000000     0.960300000000     0.663200000000     0          
T        Si     0.844250000000     0.889800000000     0.637600000000     0          
T        Si     0.865200000000     0.781500000000     0.652100000000     0          
T        Si     0.941950000000     0.792250000000     0.671200000000     0          
T        Si     0.792850000000     0.972250000000     0.634750000000     0          
O        O      0.811150000000     0.582800000000     0.786750000000     0          
O        O      0.803350000000     0.985200000000     0.791150000000     0          
O        O      0.754100000000     0.540650000000     0.757050000000     0          
O        O      0.808450000000     0.524950000000     0.733250000000     0          
O        O      0.877250000000     0.584200000000     0.800300000000     0          
O        O      0.843150000000     0.668500000000     0.797200000000     0          
O        O      0.844950000000     0.605400000000     0.848000000000     0          
O        O      0.940600000000     0.567400000000     0.800850000000     0          
O        O      0.893450000000     0.521150000000     0.756700000000     0          
O        O      0.904650000000     0.996850000000     0.821550000000     0          
O        O      0.964850000000     0.659650000000     0.808050000000     0          
O        O      0.503250000000     0.583350000000     0.832600000000     0          
O        O      0.953700000000     0.610650000000     0.860900000000     0          
O        O      0.903750000000     0.695450000000     0.792500000000     0          
O        O      0.949400000000     0.742600000000     0.837150000000     0          
O        O      0.952700000000     0.743250000000     0.772700000000     0          
O        O      0.852300000000     0.727150000000     0.747050000000     0          
O        O      0.862450000000     0.761950000000     0.809550000000     0          
O        O      0.565650000000     0.568150000000     0.827000000000     0          
O        O      0.553350000000     0.604500000000     0.883700000000     0          
O        O      0.542650000000     0.660450000000     0.829250000000     0          
O        O      0.629050000000     0.587350000000     0.851550000000     0          
O        O      0.601050000000     0.507100000000     0.871700000000     0          
O        O      0.665400000000     0.668850000000     0.863100000000     0          
O        O      0.694750000000     0.580150000000     0.866150000000     0          
O        O      0.662500000000     0.606550000000     0.913350000000     0          
O        O      0.603900000000     0.695650000000     0.834750000000     0          
O        O      0.640100000000     0.751900000000     0.882100000000     0          
O        O      0.558800000000     0.749550000000     0.856650000000     0          
O        O      0.711300000000     0.999200000000     0.903500000000     0          
O        O      0.753700000000     0.538650000000     0.869700000000     0          
O        O      0.693400000000     0.973800000000     0.959950000000     0          
O        O      0.690800000000     0.575250000000     0.974650000000     0          
O        O      0.625400000000     0.587250000000     0.957950000000     0          
O        O      0.664950000000     0.666050000000     0.965750000000     0          
O        O      0.563400000000     0.553950000000     0.940650000000     0          
O        O      0.613950000000     0.993850000000     0.938050000000     0          
O        O      0.547600000000     0.649750000000     0.940250000000     0          
O        O      0.502450000000     0.583600000000     0.911650000000     0          
O        O      0.603800000000     0.701550000000     0.948700000000     0          
O        O      0.546600000000     0.742700000000     0.917850000000     0          
O        O      0.654950000000     0.761100000000     0.948700000000     0          
O        O      0.940350000000     0.559500000000     0.911950000000     0          
O        O      0.959800000000     0.653900000000     0.920550000000     0          
O        O      0.878050000000     0.586650000000     0.910250000000     0          
O        O      0.842250000000     0.668700000000     0.897250000000     0          
O        O      0.812250000000     0.580050000000     0.894850000000     0          
O        O      0.903350000000     0.703950000000     0.901350000000     0          
T        Si     0.794150000000     0.533600000000     0.767050000000     0          
T        Si     0.844150000000     0.610200000000     0.808100000000     0          
T        Si     0.903950000000     0.542100000000     0.795000000000     0          
T        Si     0.965550000000     0.605100000000     0.825450000000     0          
T        Si     0.942850000000     0.710400000000     0.802650000000     0          
T        Si     0.865300000000     0.713400000000     0.786550000000     0          
T        Si     0.541150000000     0.603900000000     0.843000000000     0          
T        Si     0.602100000000     0.543150000000     0.839900000000     0          
T        Si     0.663100000000     0.610800000000     0.873700000000     0          
T        Si     0.641200000000     0.715900000000     0.850250000000     0          
T        Si     0.564750000000     0.710250000000     0.828200000000     0          
T        Si     0.714800000000     0.527700000000     0.869200000000     0          
T        Si     0.660900000000     0.608650000000     0.952800000000     0          
T        Si     0.601400000000     0.539400000000     0.958500000000     0          
T        Si     0.541650000000     0.598100000000     0.919100000000     0          
T        Si     0.564150000000     0.704650000000     0.947350000000     0          
T        Si     0.641750000000     0.714450000000     0.967600000000     0          
T        Si     0.964100000000     0.602150000000     0.901300000000     0          
T        Si     0.903350000000     0.539700000000     0.913200000000     0          
T        Si     0.844250000000     0.610200000000     0.887600000000     0          
T        Si     0.865200000000     0.718500000000     0.902100000000     0          
T        Si     0.941950000000     0.707750000000     0.921200000000     0          
T        Si     0.792850000000     0.527750000000     0.884750000000     0          


