data_zeolite

_audit_creation_method RASPA-1.0
_audit_creation_date 2021-6-12
_audit_author_name ''

_cell_length_a    12.88
_cell_length_b    12.88
_cell_length_c    60.6099
_cell_angle_alpha 90
_cell_angle_beta  90
_cell_angle_gamma 120
_cell_volume      78370.1

_symmetry_cell_setting          trigonal
_symmetry_space_group_name_Hall 'P 1'
_symmetry_space_group_name_H-M  'P 1'
_symmetry_Int_Tables_number     1

_symmetry_equiv_pos_as_xyz 'x,y,z'

loop_
_atom_site_label
_atom_site_type_symbol
_atom_site_fract_x
_atom_site_fract_y
_atom_site_fract_z
_atom_site_charge
T        Si     0.079313333333     0.079460000000     0.025470000000     0          
T        Si     0.142263333333     0.111440000000     0.936910000000     0          
T        Si     0.142866666667     0.112173333333     0.103650000000     0          
T        Si     0.142606666667     0.111253333333     0.858780000000     0          
T        Si     0.253873333333     0.333186666667     0.025470000000     0          
T        Si     0.221893333333     0.030823333333     0.936910000000     0          
T        Si     0.221160000000     0.030693333333     0.103650000000     0          
T        Si     0.222080000000     0.031353333333     0.858780000000     0          
T        Si     0.000146666667     0.254020000000     0.025470000000     0          
T        Si     0.302510000000     0.191070000000     0.936910000000     0          
T        Si     0.302640000000     0.190466666667     0.103650000000     0          
T        Si     0.301980000000     0.190726666667     0.858780000000     0          
T        Si     0.079460000000     0.079313333333     0.974530000000     0          
T        Si     0.111440000000     0.142263333333     0.063090000000     0          
T        Si     0.112173333333     0.142866666667     0.896350000000     0          
T        Si     0.111253333333     0.142606666667     0.141220000000     0          
T        Si     0.254020000000     0.000146666667     0.974530000000     0          
T        Si     0.191070000000     0.302510000000     0.063090000000     0          
T        Si     0.190466666667     0.302640000000     0.896350000000     0          
T        Si     0.190726666667     0.301980000000     0.141220000000     0          
T        Si     0.333186666667     0.253873333333     0.974530000000     0          
T        Si     0.030823333333     0.221893333333     0.063090000000     0          
T        Si     0.030693333333     0.221160000000     0.896350000000     0          
T        Si     0.031353333333     0.222080000000     0.141220000000     0          
T        Si     0.254020000000     0.253873333333     0.974530000000     0          
T        Si     0.191070000000     0.221893333333     0.063090000000     0          
T        Si     0.190466666667     0.221160000000     0.896350000000     0          
T        Si     0.190726666667     0.222080000000     0.141220000000     0          
T        Si     0.079460000000     0.000146666667     0.974530000000     0          
T        Si     0.111440000000     0.302510000000     0.063090000000     0          
T        Si     0.112173333333     0.302640000000     0.896350000000     0          
T        Si     0.111253333333     0.301980000000     0.141220000000     0          
T        Si     0.333186666667     0.079313333333     0.974530000000     0          
T        Si     0.030823333333     0.142263333333     0.063090000000     0          
T        Si     0.030693333333     0.142866666667     0.896350000000     0          
T        Si     0.031353333333     0.142606666667     0.141220000000     0          
T        Si     0.253873333333     0.254020000000     0.025470000000     0          
T        Si     0.221893333333     0.191070000000     0.936910000000     0          
T        Si     0.221160000000     0.190466666667     0.103650000000     0          
T        Si     0.222080000000     0.190726666667     0.858780000000     0          
T        Si     0.079313333333     0.333186666667     0.025470000000     0          
T        Si     0.142263333333     0.030823333333     0.936910000000     0          
T        Si     0.142866666667     0.030693333333     0.103650000000     0          
T        Si     0.142606666667     0.031353333333     0.858780000000     0          
T        Si     0.000146666667     0.079460000000     0.025470000000     0          
T        Si     0.302510000000     0.111440000000     0.936910000000     0          
T        Si     0.302640000000     0.112173333333     0.103650000000     0          
T        Si     0.301980000000     0.111253333333     0.858780000000     0          
T        Si     0.301535555556     0.190571111111     0.358803333333     0          
T        Si     0.031152222222     0.222551111111     0.270243333333     0          
T        Si     0.031755555556     0.223284444444     0.436983333333     0          
T        Si     0.031495555556     0.222364444444     0.192113333333     0          
T        Si     0.142762222222     0.110964444444     0.358803333333     0          
T        Si     0.110782222222     0.141934444444     0.270243333333     0          
T        Si     0.110048888889     0.141804444444     0.436983333333     0          
T        Si     0.110968888889     0.142464444444     0.192113333333     0          
T        Si     0.222368888889     0.031797777778     0.358803333333     0          
T        Si     0.191398888889     0.302181111111     0.270243333333     0          
T        Si     0.191528888889     0.301577777778     0.436983333333     0          
T        Si     0.190868888889     0.301837777778     0.192113333333     0          
T        Si     0.301682222222     0.190424444444     0.307863333333     0          
T        Si     0.000328888889     0.253374444444     0.396423333333     0          
T        Si     0.001062222222     0.253977777778     0.229683333333     0          
T        Si     0.000142222222     0.253717777778     0.474553333333     0          
T        Si     0.142908888889     0.111257777778     0.307863333333     0          
T        Si     0.079958888889     0.080287777778     0.396423333333     0          
T        Si     0.079355555556     0.080417777778     0.229683333333     0          
T        Si     0.079615555556     0.079757777778     0.474553333333     0          
T        Si     0.222075555556     0.031651111111     0.307863333333     0          
T        Si     0.253045555556     0.333004444444     0.396423333333     0          
T        Si     0.252915555556     0.332271111111     0.229683333333     0          
T        Si     0.253575555556     0.333191111111     0.474553333333     0          
T        Si     0.142908888889     0.031651111111     0.307863333333     0          
T        Si     0.079958888889     0.333004444444     0.396423333333     0          
T        Si     0.079355555556     0.332271111111     0.229683333333     0          
T        Si     0.079615555556     0.333191111111     0.474553333333     0          
T        Si     0.301682222222     0.111257777778     0.307863333333     0          
T        Si     0.000328888889     0.080287777778     0.396423333333     0          
T        Si     0.001062222222     0.080417777778     0.229683333333     0          
T        Si     0.000142222222     0.079757777778     0.474553333333     0          
T        Si     0.222075555556     0.190424444444     0.307863333333     0          
T        Si     0.253045555556     0.253374444444     0.396423333333     0          
T        Si     0.252915555556     0.253977777778     0.229683333333     0          
T        Si     0.253575555556     0.253717777778     0.474553333333     0          
T        Si     0.142762222222     0.031797777778     0.358803333333     0          
T        Si     0.110782222222     0.302181111111     0.270243333333     0          
T        Si     0.110048888889     0.301577777778     0.436983333333     0          
T        Si     0.110968888889     0.301837777778     0.192113333333     0          
T        Si     0.301535555556     0.110964444444     0.358803333333     0          
T        Si     0.031152222222     0.141934444444     0.270243333333     0          
T        Si     0.031755555556     0.141804444444     0.436983333333     0          
T        Si     0.031495555556     0.142464444444     0.192113333333     0          
T        Si     0.222368888889     0.190571111111     0.358803333333     0          
T        Si     0.191398888889     0.222551111111     0.270243333333     0          
T        Si     0.191528888889     0.223284444444     0.436983333333     0          
T        Si     0.190868888889     0.222364444444     0.192113333333     0          
T        Si     0.190424444444     0.301682222222     0.692136666667     0          
T        Si     0.253374444444     0.000328888889     0.603576666667     0          
T        Si     0.253977777778     0.001062222222     0.770316666667     0          
T        Si     0.253717777778     0.000142222222     0.525446666667     0          
T        Si     0.031651111111     0.222075555556     0.692136666667     0          
T        Si     0.333004444444     0.253045555556     0.603576666667     0          
T        Si     0.332271111111     0.252915555556     0.770316666667     0          
T        Si     0.333191111111     0.253575555556     0.525446666667     0          
T        Si     0.111257777778     0.142908888889     0.692136666667     0          
T        Si     0.080287777778     0.079958888889     0.603576666667     0          
T        Si     0.080417777778     0.079355555556     0.770316666667     0          
T        Si     0.079757777778     0.079615555556     0.525446666667     0          
T        Si     0.190571111111     0.301535555556     0.641196666667     0          
T        Si     0.222551111111     0.031152222222     0.729756666667     0          
T        Si     0.223284444444     0.031755555556     0.563016666667     0          
T        Si     0.222364444444     0.031495555556     0.807886666667     0          
T        Si     0.031797777778     0.222368888889     0.641196666667     0          
T        Si     0.302181111111     0.191398888889     0.729756666667     0          
T        Si     0.301577777778     0.191528888889     0.563016666667     0          
T        Si     0.301837777778     0.190868888889     0.807886666667     0          
T        Si     0.110964444444     0.142762222222     0.641196666667     0          
T        Si     0.141934444444     0.110782222222     0.729756666667     0          
T        Si     0.141804444444     0.110048888889     0.563016666667     0          
T        Si     0.142464444444     0.110968888889     0.807886666667     0          
T        Si     0.031797777778     0.142762222222     0.641196666667     0          
T        Si     0.302181111111     0.110782222222     0.729756666667     0          
T        Si     0.301577777778     0.110048888889     0.563016666667     0          
T        Si     0.301837777778     0.110968888889     0.807886666667     0          
T        Si     0.190571111111     0.222368888889     0.641196666667     0          
T        Si     0.222551111111     0.191398888889     0.729756666667     0          
T        Si     0.223284444444     0.191528888889     0.563016666667     0          
T        Si     0.222364444444     0.190868888889     0.807886666667     0          
T        Si     0.110964444444     0.301535555556     0.641196666667     0          
T        Si     0.141934444444     0.031152222222     0.729756666667     0          
T        Si     0.141804444444     0.031755555556     0.563016666667     0          
T        Si     0.142464444444     0.031495555556     0.807886666667     0          
T        Si     0.031651111111     0.142908888889     0.692136666667     0          
T        Si     0.333004444444     0.079958888889     0.603576666667     0          
T        Si     0.332271111111     0.079355555556     0.770316666667     0          
T        Si     0.333191111111     0.079615555556     0.525446666667     0          
T        Si     0.190424444444     0.222075555556     0.692136666667     0          
T        Si     0.253374444444     0.253045555556     0.603576666667     0          
T        Si     0.253977777778     0.252915555556     0.770316666667     0          
T        Si     0.253717777778     0.253575555556     0.525446666667     0          
T        Si     0.111257777778     0.301682222222     0.692136666667     0          
T        Si     0.080287777778     0.000328888889     0.603576666667     0          
T        Si     0.080417777778     0.001062222222     0.770316666667     0          
T        Si     0.079757777778     0.000142222222     0.525446666667     0          
T        Si     0.079313333333     0.412793333333     0.025470000000     0          
T        Si     0.142263333333     0.444773333333     0.936910000000     0          
T        Si     0.142866666667     0.445506666667     0.103650000000     0          
T        Si     0.142606666667     0.444586666667     0.858780000000     0          
T        Si     0.253873333333     0.666520000000     0.025470000000     0          
T        Si     0.221893333333     0.364156666667     0.936910000000     0          
T        Si     0.221160000000     0.364026666667     0.103650000000     0          
T        Si     0.222080000000     0.364686666667     0.858780000000     0          
T        Si     0.000146666667     0.587353333333     0.025470000000     0          
T        Si     0.302510000000     0.524403333333     0.936910000000     0          
T        Si     0.302640000000     0.523800000000     0.103650000000     0          
T        Si     0.301980000000     0.524060000000     0.858780000000     0          
T        Si     0.079460000000     0.412646666667     0.974530000000     0          
T        Si     0.111440000000     0.475596666667     0.063090000000     0          
T        Si     0.112173333333     0.476200000000     0.896350000000     0          
T        Si     0.111253333333     0.475940000000     0.141220000000     0          
T        Si     0.254020000000     0.333480000000     0.974530000000     0          
T        Si     0.191070000000     0.635843333333     0.063090000000     0          
T        Si     0.190466666667     0.635973333333     0.896350000000     0          
T        Si     0.190726666667     0.635313333333     0.141220000000     0          
T        Si     0.333186666667     0.587206666667     0.974530000000     0          
T        Si     0.030823333333     0.555226666667     0.063090000000     0          
T        Si     0.030693333333     0.554493333333     0.896350000000     0          
T        Si     0.031353333333     0.555413333333     0.141220000000     0          
T        Si     0.254020000000     0.587206666667     0.974530000000     0          
T        Si     0.191070000000     0.555226666667     0.063090000000     0          
T        Si     0.190466666667     0.554493333333     0.896350000000     0          
T        Si     0.190726666667     0.555413333333     0.141220000000     0          
T        Si     0.079460000000     0.333480000000     0.974530000000     0          
T        Si     0.111440000000     0.635843333333     0.063090000000     0          
T        Si     0.112173333333     0.635973333333     0.896350000000     0          
T        Si     0.111253333333     0.635313333333     0.141220000000     0          
T        Si     0.333186666667     0.412646666667     0.974530000000     0          
T        Si     0.030823333333     0.475596666667     0.063090000000     0          
T        Si     0.030693333333     0.476200000000     0.896350000000     0          
T        Si     0.031353333333     0.475940000000     0.141220000000     0          
T        Si     0.253873333333     0.587353333333     0.025470000000     0          
T        Si     0.221893333333     0.524403333333     0.936910000000     0          
T        Si     0.221160000000     0.523800000000     0.103650000000     0          
T        Si     0.222080000000     0.524060000000     0.858780000000     0          
T        Si     0.079313333333     0.666520000000     0.025470000000     0          
T        Si     0.142263333333     0.364156666667     0.936910000000     0          
T        Si     0.142866666667     0.364026666667     0.103650000000     0          
T        Si     0.142606666667     0.364686666667     0.858780000000     0          
T        Si     0.000146666667     0.412793333333     0.025470000000     0          
T        Si     0.302510000000     0.444773333333     0.936910000000     0          
T        Si     0.302640000000     0.445506666667     0.103650000000     0          
T        Si     0.301980000000     0.444586666667     0.858780000000     0          
T        Si     0.301535555556     0.523904444444     0.358803333333     0          
T        Si     0.031152222222     0.555884444444     0.270243333333     0          
T        Si     0.031755555556     0.556617777778     0.436983333333     0          
T        Si     0.031495555556     0.555697777778     0.192113333333     0          
T        Si     0.142762222222     0.444297777778     0.358803333333     0          
T        Si     0.110782222222     0.475267777778     0.270243333333     0          
T        Si     0.110048888889     0.475137777778     0.436983333333     0          
T        Si     0.110968888889     0.475797777778     0.192113333333     0          
T        Si     0.222368888889     0.365131111111     0.358803333333     0          
T        Si     0.191398888889     0.635514444444     0.270243333333     0          
T        Si     0.191528888889     0.634911111111     0.436983333333     0          
T        Si     0.190868888889     0.635171111111     0.192113333333     0          
T        Si     0.301682222222     0.523757777778     0.307863333333     0          
T        Si     0.000328888889     0.586707777778     0.396423333333     0          
T        Si     0.001062222222     0.587311111111     0.229683333333     0          
T        Si     0.000142222222     0.587051111111     0.474553333333     0          
T        Si     0.142908888889     0.444591111111     0.307863333333     0          
T        Si     0.079958888889     0.413621111111     0.396423333333     0          
T        Si     0.079355555556     0.413751111111     0.229683333333     0          
T        Si     0.079615555556     0.413091111111     0.474553333333     0          
T        Si     0.222075555556     0.364984444444     0.307863333333     0          
T        Si     0.253045555556     0.666337777778     0.396423333333     0          
T        Si     0.252915555556     0.665604444444     0.229683333333     0          
T        Si     0.253575555556     0.666524444444     0.474553333333     0          
T        Si     0.142908888889     0.364984444444     0.307863333333     0          
T        Si     0.079958888889     0.666337777778     0.396423333333     0          
T        Si     0.079355555556     0.665604444444     0.229683333333     0          
T        Si     0.079615555556     0.666524444444     0.474553333333     0          
T        Si     0.301682222222     0.444591111111     0.307863333333     0          
T        Si     0.000328888889     0.413621111111     0.396423333333     0          
T        Si     0.001062222222     0.413751111111     0.229683333333     0          
T        Si     0.000142222222     0.413091111111     0.474553333333     0          
T        Si     0.222075555556     0.523757777778     0.307863333333     0          
T        Si     0.253045555556     0.586707777778     0.396423333333     0          
T        Si     0.252915555556     0.587311111111     0.229683333333     0          
T        Si     0.253575555556     0.587051111111     0.474553333333     0          
T        Si     0.142762222222     0.365131111111     0.358803333333     0          
T        Si     0.110782222222     0.635514444444     0.270243333333     0          
T        Si     0.110048888889     0.634911111111     0.436983333333     0          
T        Si     0.110968888889     0.635171111111     0.192113333333     0          
T        Si     0.301535555556     0.444297777778     0.358803333333     0          
T        Si     0.031152222222     0.475267777778     0.270243333333     0          
T        Si     0.031755555556     0.475137777778     0.436983333333     0          
T        Si     0.031495555556     0.475797777778     0.192113333333     0          
T        Si     0.222368888889     0.523904444444     0.358803333333     0          
T        Si     0.191398888889     0.555884444444     0.270243333333     0          
T        Si     0.191528888889     0.556617777778     0.436983333333     0          
T        Si     0.190868888889     0.555697777778     0.192113333333     0          
T        Si     0.190424444444     0.635015555556     0.692136666667     0          
T        Si     0.253374444444     0.333662222222     0.603576666667     0          
T        Si     0.253977777778     0.334395555556     0.770316666667     0          
T        Si     0.253717777778     0.333475555556     0.525446666667     0          
T        Si     0.031651111111     0.555408888889     0.692136666667     0          
T        Si     0.333004444444     0.586378888889     0.603576666667     0          
T        Si     0.332271111111     0.586248888889     0.770316666667     0          
T        Si     0.333191111111     0.586908888889     0.525446666667     0          
T        Si     0.111257777778     0.476242222222     0.692136666667     0          
T        Si     0.080287777778     0.413292222222     0.603576666667     0          
T        Si     0.080417777778     0.412688888889     0.770316666667     0          
T        Si     0.079757777778     0.412948888889     0.525446666667     0          
T        Si     0.190571111111     0.634868888889     0.641196666667     0          
T        Si     0.222551111111     0.364485555556     0.729756666667     0          
T        Si     0.223284444444     0.365088888889     0.563016666667     0          
T        Si     0.222364444444     0.364828888889     0.807886666667     0          
T        Si     0.031797777778     0.555702222222     0.641196666667     0          
T        Si     0.302181111111     0.524732222222     0.729756666667     0          
T        Si     0.301577777778     0.524862222222     0.563016666667     0          
T        Si     0.301837777778     0.524202222222     0.807886666667     0          
T        Si     0.110964444444     0.476095555556     0.641196666667     0          
T        Si     0.141934444444     0.444115555556     0.729756666667     0          
T        Si     0.141804444444     0.443382222222     0.563016666667     0          
T        Si     0.142464444444     0.444302222222     0.807886666667     0          
T        Si     0.031797777778     0.476095555556     0.641196666667     0          
T        Si     0.302181111111     0.444115555556     0.729756666667     0          
T        Si     0.301577777778     0.443382222222     0.563016666667     0          
T        Si     0.301837777778     0.444302222222     0.807886666667     0          
T        Si     0.190571111111     0.555702222222     0.641196666667     0          
T        Si     0.222551111111     0.524732222222     0.729756666667     0          
T        Si     0.223284444444     0.524862222222     0.563016666667     0          
T        Si     0.222364444444     0.524202222222     0.807886666667     0          
T        Si     0.110964444444     0.634868888889     0.641196666667     0          
T        Si     0.141934444444     0.364485555556     0.729756666667     0          
T        Si     0.141804444444     0.365088888889     0.563016666667     0          
T        Si     0.142464444444     0.364828888889     0.807886666667     0          
T        Si     0.031651111111     0.476242222222     0.692136666667     0          
T        Si     0.333004444444     0.413292222222     0.603576666667     0          
T        Si     0.332271111111     0.412688888889     0.770316666667     0          
T        Si     0.333191111111     0.412948888889     0.525446666667     0          
T        Si     0.190424444444     0.555408888889     0.692136666667     0          
T        Si     0.253374444444     0.586378888889     0.603576666667     0          
T        Si     0.253977777778     0.586248888889     0.770316666667     0          
T        Si     0.253717777778     0.586908888889     0.525446666667     0          
T        Si     0.111257777778     0.635015555556     0.692136666667     0          
T        Si     0.080287777778     0.333662222222     0.603576666667     0          
T        Si     0.080417777778     0.334395555556     0.770316666667     0          
T        Si     0.079757777778     0.333475555556     0.525446666667     0          
T        Si     0.079313333333     0.746126666667     0.025470000000     0          
T        Si     0.142263333333     0.778106666667     0.936910000000     0          
T        Si     0.142866666667     0.778840000000     0.103650000000     0          
T        Si     0.142606666667     0.777920000000     0.858780000000     0          
T        Si     0.253873333333     0.999853333333     0.025470000000     0          
T        Si     0.221893333333     0.697490000000     0.936910000000     0          
T        Si     0.221160000000     0.697360000000     0.103650000000     0          
T        Si     0.222080000000     0.698020000000     0.858780000000     0          
T        Si     0.000146666667     0.920686666667     0.025470000000     0          
T        Si     0.302510000000     0.857736666667     0.936910000000     0          
T        Si     0.302640000000     0.857133333333     0.103650000000     0          
T        Si     0.301980000000     0.857393333333     0.858780000000     0          
T        Si     0.079460000000     0.745980000000     0.974530000000     0          
T        Si     0.111440000000     0.808930000000     0.063090000000     0          
T        Si     0.112173333333     0.809533333333     0.896350000000     0          
T        Si     0.111253333333     0.809273333333     0.141220000000     0          
T        Si     0.254020000000     0.666813333333     0.974530000000     0          
T        Si     0.191070000000     0.969176666667     0.063090000000     0          
T        Si     0.190466666667     0.969306666667     0.896350000000     0          
T        Si     0.190726666667     0.968646666667     0.141220000000     0          
T        Si     0.333186666667     0.920540000000     0.974530000000     0          
T        Si     0.030823333333     0.888560000000     0.063090000000     0          
T        Si     0.030693333333     0.887826666667     0.896350000000     0          
T        Si     0.031353333333     0.888746666667     0.141220000000     0          
T        Si     0.254020000000     0.920540000000     0.974530000000     0          
T        Si     0.191070000000     0.888560000000     0.063090000000     0          
T        Si     0.190466666667     0.887826666667     0.896350000000     0          
T        Si     0.190726666667     0.888746666667     0.141220000000     0          
T        Si     0.079460000000     0.666813333333     0.974530000000     0          
T        Si     0.111440000000     0.969176666667     0.063090000000     0          
T        Si     0.112173333333     0.969306666667     0.896350000000     0          
T        Si     0.111253333333     0.968646666667     0.141220000000     0          
T        Si     0.333186666667     0.745980000000     0.974530000000     0          
T        Si     0.030823333333     0.808930000000     0.063090000000     0          
T        Si     0.030693333333     0.809533333333     0.896350000000     0          
T        Si     0.031353333333     0.809273333333     0.141220000000     0          
T        Si     0.253873333333     0.920686666667     0.025470000000     0          
T        Si     0.221893333333     0.857736666667     0.936910000000     0          
T        Si     0.221160000000     0.857133333333     0.103650000000     0          
T        Si     0.222080000000     0.857393333333     0.858780000000     0          
T        Si     0.079313333333     0.999853333333     0.025470000000     0          
T        Si     0.142263333333     0.697490000000     0.936910000000     0          
T        Si     0.142866666667     0.697360000000     0.103650000000     0          
T        Si     0.142606666667     0.698020000000     0.858780000000     0          
T        Si     0.000146666667     0.746126666667     0.025470000000     0          
T        Si     0.302510000000     0.778106666667     0.936910000000     0          
T        Si     0.302640000000     0.778840000000     0.103650000000     0          
T        Si     0.301980000000     0.777920000000     0.858780000000     0          
T        Si     0.301535555556     0.857237777778     0.358803333333     0          
T        Si     0.031152222222     0.889217777778     0.270243333333     0          
T        Si     0.031755555556     0.889951111111     0.436983333333     0          
T        Si     0.031495555556     0.889031111111     0.192113333333     0          
T        Si     0.142762222222     0.777631111111     0.358803333333     0          
T        Si     0.110782222222     0.808601111111     0.270243333333     0          
T        Si     0.110048888889     0.808471111111     0.436983333333     0          
T        Si     0.110968888889     0.809131111111     0.192113333333     0          
T        Si     0.222368888889     0.698464444444     0.358803333333     0          
T        Si     0.191398888889     0.968847777778     0.270243333333     0          
T        Si     0.191528888889     0.968244444444     0.436983333333     0          
T        Si     0.190868888889     0.968504444444     0.192113333333     0          
T        Si     0.301682222222     0.857091111111     0.307863333333     0          
T        Si     0.000328888889     0.920041111111     0.396423333333     0          
T        Si     0.001062222222     0.920644444444     0.229683333333     0          
T        Si     0.000142222222     0.920384444444     0.474553333333     0          
T        Si     0.142908888889     0.777924444444     0.307863333333     0          
T        Si     0.079958888889     0.746954444444     0.396423333333     0          
T        Si     0.079355555556     0.747084444444     0.229683333333     0          
T        Si     0.079615555556     0.746424444444     0.474553333333     0          
T        Si     0.222075555556     0.698317777778     0.307863333333     0          
T        Si     0.253045555556     0.999671111111     0.396423333333     0          
T        Si     0.252915555556     0.998937777778     0.229683333333     0          
T        Si     0.253575555556     0.999857777778     0.474553333333     0          
T        Si     0.142908888889     0.698317777778     0.307863333333     0          
T        Si     0.079958888889     0.999671111111     0.396423333333     0          
T        Si     0.079355555556     0.998937777778     0.229683333333     0          
T        Si     0.079615555556     0.999857777778     0.474553333333     0          
T        Si     0.301682222222     0.777924444444     0.307863333333     0          
T        Si     0.000328888889     0.746954444444     0.396423333333     0          
T        Si     0.001062222222     0.747084444444     0.229683333333     0          
T        Si     0.000142222222     0.746424444444     0.474553333333     0          
T        Si     0.222075555556     0.857091111111     0.307863333333     0          
T        Si     0.253045555556     0.920041111111     0.396423333333     0          
T        Si     0.252915555556     0.920644444444     0.229683333333     0          
T        Si     0.253575555556     0.920384444444     0.474553333333     0          
T        Si     0.142762222222     0.698464444444     0.358803333333     0          
T        Si     0.110782222222     0.968847777778     0.270243333333     0          
T        Si     0.110048888889     0.968244444444     0.436983333333     0          
T        Si     0.110968888889     0.968504444444     0.192113333333     0          
T        Si     0.301535555556     0.777631111111     0.358803333333     0          
T        Si     0.031152222222     0.808601111111     0.270243333333     0          
T        Si     0.031755555556     0.808471111111     0.436983333333     0          
T        Si     0.031495555556     0.809131111111     0.192113333333     0          
T        Si     0.222368888889     0.857237777778     0.358803333333     0          
T        Si     0.191398888889     0.889217777778     0.270243333333     0          
T        Si     0.191528888889     0.889951111111     0.436983333333     0          
T        Si     0.190868888889     0.889031111111     0.192113333333     0          
T        Si     0.190424444444     0.968348888889     0.692136666667     0          
T        Si     0.253374444444     0.666995555556     0.603576666667     0          
T        Si     0.253977777778     0.667728888889     0.770316666667     0          
T        Si     0.253717777778     0.666808888889     0.525446666667     0          
T        Si     0.031651111111     0.888742222222     0.692136666667     0          
T        Si     0.333004444444     0.919712222222     0.603576666667     0          
T        Si     0.332271111111     0.919582222222     0.770316666667     0          
T        Si     0.333191111111     0.920242222222     0.525446666667     0          
T        Si     0.111257777778     0.809575555556     0.692136666667     0          
T        Si     0.080287777778     0.746625555556     0.603576666667     0          
T        Si     0.080417777778     0.746022222222     0.770316666667     0          
T        Si     0.079757777778     0.746282222222     0.525446666667     0          
T        Si     0.190571111111     0.968202222222     0.641196666667     0          
T        Si     0.222551111111     0.697818888889     0.729756666667     0          
T        Si     0.223284444444     0.698422222222     0.563016666667     0          
T        Si     0.222364444444     0.698162222222     0.807886666667     0          
T        Si     0.031797777778     0.889035555556     0.641196666667     0          
T        Si     0.302181111111     0.858065555556     0.729756666667     0          
T        Si     0.301577777778     0.858195555556     0.563016666667     0          
T        Si     0.301837777778     0.857535555556     0.807886666667     0          
T        Si     0.110964444444     0.809428888889     0.641196666667     0          
T        Si     0.141934444444     0.777448888889     0.729756666667     0          
T        Si     0.141804444444     0.776715555556     0.563016666667     0          
T        Si     0.142464444444     0.777635555556     0.807886666667     0          
T        Si     0.031797777778     0.809428888889     0.641196666667     0          
T        Si     0.302181111111     0.777448888889     0.729756666667     0          
T        Si     0.301577777778     0.776715555556     0.563016666667     0          
T        Si     0.301837777778     0.777635555556     0.807886666667     0          
T        Si     0.190571111111     0.889035555556     0.641196666667     0          
T        Si     0.222551111111     0.858065555556     0.729756666667     0          
T        Si     0.223284444444     0.858195555556     0.563016666667     0          
T        Si     0.222364444444     0.857535555556     0.807886666667     0          
T        Si     0.110964444444     0.968202222222     0.641196666667     0          
T        Si     0.141934444444     0.697818888889     0.729756666667     0          
T        Si     0.141804444444     0.698422222222     0.563016666667     0          
T        Si     0.142464444444     0.698162222222     0.807886666667     0          
T        Si     0.031651111111     0.809575555556     0.692136666667     0          
T        Si     0.333004444444     0.746625555556     0.603576666667     0          
T        Si     0.332271111111     0.746022222222     0.770316666667     0          
T        Si     0.333191111111     0.746282222222     0.525446666667     0          
T        Si     0.190424444444     0.888742222222     0.692136666667     0          
T        Si     0.253374444444     0.919712222222     0.603576666667     0          
T        Si     0.253977777778     0.919582222222     0.770316666667     0          
T        Si     0.253717777778     0.920242222222     0.525446666667     0          
T        Si     0.111257777778     0.968348888889     0.692136666667     0          
T        Si     0.080287777778     0.666995555556     0.603576666667     0          
T        Si     0.080417777778     0.667728888889     0.770316666667     0          
T        Si     0.079757777778     0.666808888889     0.525446666667     0          
T        Si     0.412646666667     0.079460000000     0.025470000000     0          
T        Si     0.475596666667     0.111440000000     0.936910000000     0          
T        Si     0.476200000000     0.112173333333     0.103650000000     0          
T        Si     0.475940000000     0.111253333333     0.858780000000     0          
T        Si     0.587206666667     0.333186666667     0.025470000000     0          
T        Si     0.555226666667     0.030823333333     0.936910000000     0          
T        Si     0.554493333333     0.030693333333     0.103650000000     0          
T        Si     0.555413333333     0.031353333333     0.858780000000     0          
T        Si     0.333480000000     0.254020000000     0.025470000000     0          
T        Si     0.635843333333     0.191070000000     0.936910000000     0          
T        Si     0.635973333333     0.190466666667     0.103650000000     0          
T        Si     0.635313333333     0.190726666667     0.858780000000     0          
T        Si     0.412793333333     0.079313333333     0.974530000000     0          
T        Si     0.444773333333     0.142263333333     0.063090000000     0          
T        Si     0.445506666667     0.142866666667     0.896350000000     0          
T        Si     0.444586666667     0.142606666667     0.141220000000     0          
T        Si     0.587353333333     0.000146666667     0.974530000000     0          
T        Si     0.524403333333     0.302510000000     0.063090000000     0          
T        Si     0.523800000000     0.302640000000     0.896350000000     0          
T        Si     0.524060000000     0.301980000000     0.141220000000     0          
T        Si     0.666520000000     0.253873333333     0.974530000000     0          
T        Si     0.364156666667     0.221893333333     0.063090000000     0          
T        Si     0.364026666667     0.221160000000     0.896350000000     0          
T        Si     0.364686666667     0.222080000000     0.141220000000     0          
T        Si     0.587353333333     0.253873333333     0.974530000000     0          
T        Si     0.524403333333     0.221893333333     0.063090000000     0          
T        Si     0.523800000000     0.221160000000     0.896350000000     0          
T        Si     0.524060000000     0.222080000000     0.141220000000     0          
T        Si     0.412793333333     0.000146666667     0.974530000000     0          
T        Si     0.444773333333     0.302510000000     0.063090000000     0          
T        Si     0.445506666667     0.302640000000     0.896350000000     0          
T        Si     0.444586666667     0.301980000000     0.141220000000     0          
T        Si     0.666520000000     0.079313333333     0.974530000000     0          
T        Si     0.364156666667     0.142263333333     0.063090000000     0          
T        Si     0.364026666667     0.142866666667     0.896350000000     0          
T        Si     0.364686666667     0.142606666667     0.141220000000     0          
T        Si     0.587206666667     0.254020000000     0.025470000000     0          
T        Si     0.555226666667     0.191070000000     0.936910000000     0          
T        Si     0.554493333333     0.190466666667     0.103650000000     0          
T        Si     0.555413333333     0.190726666667     0.858780000000     0          
T        Si     0.412646666667     0.333186666667     0.025470000000     0          
T        Si     0.475596666667     0.030823333333     0.936910000000     0          
T        Si     0.476200000000     0.030693333333     0.103650000000     0          
T        Si     0.475940000000     0.031353333333     0.858780000000     0          
T        Si     0.333480000000     0.079460000000     0.025470000000     0          
T        Si     0.635843333333     0.111440000000     0.936910000000     0          
T        Si     0.635973333333     0.112173333333     0.103650000000     0          
T        Si     0.635313333333     0.111253333333     0.858780000000     0          
T        Si     0.634868888889     0.190571111111     0.358803333333     0          
T        Si     0.364485555556     0.222551111111     0.270243333333     0          
T        Si     0.365088888889     0.223284444444     0.436983333333     0          
T        Si     0.364828888889     0.222364444444     0.192113333333     0          
T        Si     0.476095555556     0.110964444444     0.358803333333     0          
T        Si     0.444115555556     0.141934444444     0.270243333333     0          
T        Si     0.443382222222     0.141804444444     0.436983333333     0          
T        Si     0.444302222222     0.142464444444     0.192113333333     0          
T        Si     0.555702222222     0.031797777778     0.358803333333     0          
T        Si     0.524732222222     0.302181111111     0.270243333333     0          
T        Si     0.524862222222     0.301577777778     0.436983333333     0          
T        Si     0.524202222222     0.301837777778     0.192113333333     0          
T        Si     0.635015555556     0.190424444444     0.307863333333     0          
T        Si     0.333662222222     0.253374444444     0.396423333333     0          
T        Si     0.334395555556     0.253977777778     0.229683333333     0          
T        Si     0.333475555556     0.253717777778     0.474553333333     0          
T        Si     0.476242222222     0.111257777778     0.307863333333     0          
T        Si     0.413292222222     0.080287777778     0.396423333333     0          
T        Si     0.412688888889     0.080417777778     0.229683333333     0          
T        Si     0.412948888889     0.079757777778     0.474553333333     0          
T        Si     0.555408888889     0.031651111111     0.307863333333     0          
T        Si     0.586378888889     0.333004444444     0.396423333333     0          
T        Si     0.586248888889     0.332271111111     0.229683333333     0          
T        Si     0.586908888889     0.333191111111     0.474553333333     0          
T        Si     0.476242222222     0.031651111111     0.307863333333     0          
T        Si     0.413292222222     0.333004444444     0.396423333333     0          
T        Si     0.412688888889     0.332271111111     0.229683333333     0          
T        Si     0.412948888889     0.333191111111     0.474553333333     0          
T        Si     0.635015555556     0.111257777778     0.307863333333     0          
T        Si     0.333662222222     0.080287777778     0.396423333333     0          
T        Si     0.334395555556     0.080417777778     0.229683333333     0          
T        Si     0.333475555556     0.079757777778     0.474553333333     0          
T        Si     0.555408888889     0.190424444444     0.307863333333     0          
T        Si     0.586378888889     0.253374444444     0.396423333333     0          
T        Si     0.586248888889     0.253977777778     0.229683333333     0          
T        Si     0.586908888889     0.253717777778     0.474553333333     0          
T        Si     0.476095555556     0.031797777778     0.358803333333     0          
T        Si     0.444115555556     0.302181111111     0.270243333333     0          
T        Si     0.443382222222     0.301577777778     0.436983333333     0          
T        Si     0.444302222222     0.301837777778     0.192113333333     0          
T        Si     0.634868888889     0.110964444444     0.358803333333     0          
T        Si     0.364485555556     0.141934444444     0.270243333333     0          
T        Si     0.365088888889     0.141804444444     0.436983333333     0          
T        Si     0.364828888889     0.142464444444     0.192113333333     0          
T        Si     0.555702222222     0.190571111111     0.358803333333     0          
T        Si     0.524732222222     0.222551111111     0.270243333333     0          
T        Si     0.524862222222     0.223284444444     0.436983333333     0          
T        Si     0.524202222222     0.222364444444     0.192113333333     0          
T        Si     0.523757777778     0.301682222222     0.692136666667     0          
T        Si     0.586707777778     0.000328888889     0.603576666667     0          
T        Si     0.587311111111     0.001062222222     0.770316666667     0          
T        Si     0.587051111111     0.000142222222     0.525446666667     0          
T        Si     0.364984444444     0.222075555556     0.692136666667     0          
T        Si     0.666337777778     0.253045555556     0.603576666667     0          
T        Si     0.665604444444     0.252915555556     0.770316666667     0          
T        Si     0.666524444444     0.253575555556     0.525446666667     0          
T        Si     0.444591111111     0.142908888889     0.692136666667     0          
T        Si     0.413621111111     0.079958888889     0.603576666667     0          
T        Si     0.413751111111     0.079355555556     0.770316666667     0          
T        Si     0.413091111111     0.079615555556     0.525446666667     0          
T        Si     0.523904444444     0.301535555556     0.641196666667     0          
T        Si     0.555884444444     0.031152222222     0.729756666667     0          
T        Si     0.556617777778     0.031755555556     0.563016666667     0          
T        Si     0.555697777778     0.031495555556     0.807886666667     0          
T        Si     0.365131111111     0.222368888889     0.641196666667     0          
T        Si     0.635514444444     0.191398888889     0.729756666667     0          
T        Si     0.634911111111     0.191528888889     0.563016666667     0          
T        Si     0.635171111111     0.190868888889     0.807886666667     0          
T        Si     0.444297777778     0.142762222222     0.641196666667     0          
T        Si     0.475267777778     0.110782222222     0.729756666667     0          
T        Si     0.475137777778     0.110048888889     0.563016666667     0          
T        Si     0.475797777778     0.110968888889     0.807886666667     0          
T        Si     0.365131111111     0.142762222222     0.641196666667     0          
T        Si     0.635514444444     0.110782222222     0.729756666667     0          
T        Si     0.634911111111     0.110048888889     0.563016666667     0          
T        Si     0.635171111111     0.110968888889     0.807886666667     0          
T        Si     0.523904444444     0.222368888889     0.641196666667     0          
T        Si     0.555884444444     0.191398888889     0.729756666667     0          
T        Si     0.556617777778     0.191528888889     0.563016666667     0          
T        Si     0.555697777778     0.190868888889     0.807886666667     0          
T        Si     0.444297777778     0.301535555556     0.641196666667     0          
T        Si     0.475267777778     0.031152222222     0.729756666667     0          
T        Si     0.475137777778     0.031755555556     0.563016666667     0          
T        Si     0.475797777778     0.031495555556     0.807886666667     0          
T        Si     0.364984444444     0.142908888889     0.692136666667     0          
T        Si     0.666337777778     0.079958888889     0.603576666667     0          
T        Si     0.665604444444     0.079355555556     0.770316666667     0          
T        Si     0.666524444444     0.079615555556     0.525446666667     0          
T        Si     0.523757777778     0.222075555556     0.692136666667     0          
T        Si     0.586707777778     0.253045555556     0.603576666667     0          
T        Si     0.587311111111     0.252915555556     0.770316666667     0          
T        Si     0.587051111111     0.253575555556     0.525446666667     0          
T        Si     0.444591111111     0.301682222222     0.692136666667     0          
T        Si     0.413621111111     0.000328888889     0.603576666667     0          
T        Si     0.413751111111     0.001062222222     0.770316666667     0          
T        Si     0.413091111111     0.000142222222     0.525446666667     0          
T        Si     0.412646666667     0.412793333333     0.025470000000     0          
T        Si     0.475596666667     0.444773333333     0.936910000000     0          
T        Si     0.476200000000     0.445506666667     0.103650000000     0          
T        Si     0.475940000000     0.444586666667     0.858780000000     0          
T        Si     0.587206666667     0.666520000000     0.025470000000     0          
T        Si     0.555226666667     0.364156666667     0.936910000000     0          
T        Si     0.554493333333     0.364026666667     0.103650000000     0          
T        Si     0.555413333333     0.364686666667     0.858780000000     0          
T        Si     0.333480000000     0.587353333333     0.025470000000     0          
T        Si     0.635843333333     0.524403333333     0.936910000000     0          
T        Si     0.635973333333     0.523800000000     0.103650000000     0          
T        Si     0.635313333333     0.524060000000     0.858780000000     0          
T        Si     0.412793333333     0.412646666667     0.974530000000     0          
T        Si     0.444773333333     0.475596666667     0.063090000000     0          
T        Si     0.445506666667     0.476200000000     0.896350000000     0          
T        Si     0.444586666667     0.475940000000     0.141220000000     0          
T        Si     0.587353333333     0.333480000000     0.974530000000     0          
T        Si     0.524403333333     0.635843333333     0.063090000000     0          
T        Si     0.523800000000     0.635973333333     0.896350000000     0          
T        Si     0.524060000000     0.635313333333     0.141220000000     0          
T        Si     0.666520000000     0.587206666667     0.974530000000     0          
T        Si     0.364156666667     0.555226666667     0.063090000000     0          
T        Si     0.364026666667     0.554493333333     0.896350000000     0          
T        Si     0.364686666667     0.555413333333     0.141220000000     0          
T        Si     0.587353333333     0.587206666667     0.974530000000     0          
T        Si     0.524403333333     0.555226666667     0.063090000000     0          
T        Si     0.523800000000     0.554493333333     0.896350000000     0          
T        Si     0.524060000000     0.555413333333     0.141220000000     0          
T        Si     0.412793333333     0.333480000000     0.974530000000     0          
T        Si     0.444773333333     0.635843333333     0.063090000000     0          
T        Si     0.445506666667     0.635973333333     0.896350000000     0          
T        Si     0.444586666667     0.635313333333     0.141220000000     0          
T        Si     0.666520000000     0.412646666667     0.974530000000     0          
T        Si     0.364156666667     0.475596666667     0.063090000000     0          
T        Si     0.364026666667     0.476200000000     0.896350000000     0          
T        Si     0.364686666667     0.475940000000     0.141220000000     0          
T        Si     0.587206666667     0.587353333333     0.025470000000     0          
T        Si     0.555226666667     0.524403333333     0.936910000000     0          
T        Si     0.554493333333     0.523800000000     0.103650000000     0          
T        Si     0.555413333333     0.524060000000     0.858780000000     0          
T        Si     0.412646666667     0.666520000000     0.025470000000     0          
T        Si     0.475596666667     0.364156666667     0.936910000000     0          
T        Si     0.476200000000     0.364026666667     0.103650000000     0          
T        Si     0.475940000000     0.364686666667     0.858780000000     0          
T        Si     0.333480000000     0.412793333333     0.025470000000     0          
T        Si     0.635843333333     0.444773333333     0.936910000000     0          
T        Si     0.635973333333     0.445506666667     0.103650000000     0          
T        Si     0.635313333333     0.444586666667     0.858780000000     0          
T        Si     0.634868888889     0.523904444444     0.358803333333     0          
T        Si     0.364485555556     0.555884444444     0.270243333333     0          
T        Si     0.365088888889     0.556617777778     0.436983333333     0          
T        Si     0.364828888889     0.555697777778     0.192113333333     0          
T        Si     0.476095555556     0.444297777778     0.358803333333     0          
T        Si     0.444115555556     0.475267777778     0.270243333333     0          
T        Si     0.443382222222     0.475137777778     0.436983333333     0          
T        Si     0.444302222222     0.475797777778     0.192113333333     0          
T        Si     0.555702222222     0.365131111111     0.358803333333     0          
T        Si     0.524732222222     0.635514444444     0.270243333333     0          
T        Si     0.524862222222     0.634911111111     0.436983333333     0          
T        Si     0.524202222222     0.635171111111     0.192113333333     0          
T        Si     0.635015555556     0.523757777778     0.307863333333     0          
T        Si     0.333662222222     0.586707777778     0.396423333333     0          
T        Si     0.334395555556     0.587311111111     0.229683333333     0          
T        Si     0.333475555556     0.587051111111     0.474553333333     0          
T        Si     0.476242222222     0.444591111111     0.307863333333     0          
T        Si     0.413292222222     0.413621111111     0.396423333333     0          
T        Si     0.412688888889     0.413751111111     0.229683333333     0          
T        Si     0.412948888889     0.413091111111     0.474553333333     0          
T        Si     0.555408888889     0.364984444444     0.307863333333     0          
T        Si     0.586378888889     0.666337777778     0.396423333333     0          
T        Si     0.586248888889     0.665604444444     0.229683333333     0          
T        Si     0.586908888889     0.666524444444     0.474553333333     0          
T        Si     0.476242222222     0.364984444444     0.307863333333     0          
T        Si     0.413292222222     0.666337777778     0.396423333333     0          
T        Si     0.412688888889     0.665604444444     0.229683333333     0          
T        Si     0.412948888889     0.666524444444     0.474553333333     0          
T        Si     0.635015555556     0.444591111111     0.307863333333     0          
T        Si     0.333662222222     0.413621111111     0.396423333333     0          
T        Si     0.334395555556     0.413751111111     0.229683333333     0          
T        Si     0.333475555556     0.413091111111     0.474553333333     0          
T        Si     0.555408888889     0.523757777778     0.307863333333     0          
T        Si     0.586378888889     0.586707777778     0.396423333333     0          
T        Si     0.586248888889     0.587311111111     0.229683333333     0          
T        Si     0.586908888889     0.587051111111     0.474553333333     0          
T        Si     0.476095555556     0.365131111111     0.358803333333     0          
T        Si     0.444115555556     0.635514444444     0.270243333333     0          
T        Si     0.443382222222     0.634911111111     0.436983333333     0          
T        Si     0.444302222222     0.635171111111     0.192113333333     0          
T        Si     0.634868888889     0.444297777778     0.358803333333     0          
T        Si     0.364485555556     0.475267777778     0.270243333333     0          
T        Si     0.365088888889     0.475137777778     0.436983333333     0          
T        Si     0.364828888889     0.475797777778     0.192113333333     0          
T        Si     0.555702222222     0.523904444444     0.358803333333     0          
T        Si     0.524732222222     0.555884444444     0.270243333333     0          
T        Si     0.524862222222     0.556617777778     0.436983333333     0          
T        Si     0.524202222222     0.555697777778     0.192113333333     0          
T        Si     0.523757777778     0.635015555556     0.692136666667     0          
T        Si     0.586707777778     0.333662222222     0.603576666667     0          
T        Si     0.587311111111     0.334395555556     0.770316666667     0          
T        Si     0.587051111111     0.333475555556     0.525446666667     0          
T        Si     0.364984444444     0.555408888889     0.692136666667     0          
T        Si     0.666337777778     0.586378888889     0.603576666667     0          
T        Si     0.665604444444     0.586248888889     0.770316666667     0          
T        Si     0.666524444444     0.586908888889     0.525446666667     0          
T        Si     0.444591111111     0.476242222222     0.692136666667     0          
T        Si     0.413621111111     0.413292222222     0.603576666667     0          
T        Si     0.413751111111     0.412688888889     0.770316666667     0          
T        Si     0.413091111111     0.412948888889     0.525446666667     0          
T        Si     0.523904444444     0.634868888889     0.641196666667     0          
T        Si     0.555884444444     0.364485555556     0.729756666667     0          
T        Si     0.556617777778     0.365088888889     0.563016666667     0          
T        Si     0.555697777778     0.364828888889     0.807886666667     0          
T        Si     0.365131111111     0.555702222222     0.641196666667     0          
T        Si     0.635514444444     0.524732222222     0.729756666667     0          
T        Si     0.634911111111     0.524862222222     0.563016666667     0          
T        Si     0.635171111111     0.524202222222     0.807886666667     0          
T        Si     0.444297777778     0.476095555556     0.641196666667     0          
T        Si     0.475267777778     0.444115555556     0.729756666667     0          
T        Si     0.475137777778     0.443382222222     0.563016666667     0          
T        Si     0.475797777778     0.444302222222     0.807886666667     0          
T        Si     0.365131111111     0.476095555556     0.641196666667     0          
T        Si     0.635514444444     0.444115555556     0.729756666667     0          
T        Si     0.634911111111     0.443382222222     0.563016666667     0          
T        Si     0.635171111111     0.444302222222     0.807886666667     0          
T        Si     0.523904444444     0.555702222222     0.641196666667     0          
T        Si     0.555884444444     0.524732222222     0.729756666667     0          
T        Si     0.556617777778     0.524862222222     0.563016666667     0          
T        Si     0.555697777778     0.524202222222     0.807886666667     0          
T        Si     0.444297777778     0.634868888889     0.641196666667     0          
T        Si     0.475267777778     0.364485555556     0.729756666667     0          
T        Si     0.475137777778     0.365088888889     0.563016666667     0          
T        Si     0.475797777778     0.364828888889     0.807886666667     0          
T        Si     0.364984444444     0.476242222222     0.692136666667     0          
T        Si     0.666337777778     0.413292222222     0.603576666667     0          
T        Si     0.665604444444     0.412688888889     0.770316666667     0          
T        Si     0.666524444444     0.412948888889     0.525446666667     0          
T        Si     0.523757777778     0.555408888889     0.692136666667     0          
T        Si     0.586707777778     0.586378888889     0.603576666667     0          
T        Si     0.587311111111     0.586248888889     0.770316666667     0          
T        Si     0.587051111111     0.586908888889     0.525446666667     0          
T        Si     0.444591111111     0.635015555556     0.692136666667     0          
T        Si     0.413621111111     0.333662222222     0.603576666667     0          
T        Si     0.413751111111     0.334395555556     0.770316666667     0          
T        Si     0.413091111111     0.333475555556     0.525446666667     0          
T        Si     0.412646666667     0.746126666667     0.025470000000     0          
T        Si     0.475596666667     0.778106666667     0.936910000000     0          
T        Si     0.476200000000     0.778840000000     0.103650000000     0          
T        Si     0.475940000000     0.777920000000     0.858780000000     0          
T        Si     0.587206666667     0.999853333333     0.025470000000     0          
T        Si     0.555226666667     0.697490000000     0.936910000000     0          
T        Si     0.554493333333     0.697360000000     0.103650000000     0          
T        Si     0.555413333333     0.698020000000     0.858780000000     0          
T        Si     0.333480000000     0.920686666667     0.025470000000     0          
T        Si     0.635843333333     0.857736666667     0.936910000000     0          
T        Si     0.635973333333     0.857133333333     0.103650000000     0          
T        Si     0.635313333333     0.857393333333     0.858780000000     0          
T        Si     0.412793333333     0.745980000000     0.974530000000     0          
T        Si     0.444773333333     0.808930000000     0.063090000000     0          
T        Si     0.445506666667     0.809533333333     0.896350000000     0          
T        Si     0.444586666667     0.809273333333     0.141220000000     0          
T        Si     0.587353333333     0.666813333333     0.974530000000     0          
T        Si     0.524403333333     0.969176666667     0.063090000000     0          
T        Si     0.523800000000     0.969306666667     0.896350000000     0          
T        Si     0.524060000000     0.968646666667     0.141220000000     0          
T        Si     0.666520000000     0.920540000000     0.974530000000     0          
T        Si     0.364156666667     0.888560000000     0.063090000000     0          
T        Si     0.364026666667     0.887826666667     0.896350000000     0          
T        Si     0.364686666667     0.888746666667     0.141220000000     0          
T        Si     0.587353333333     0.920540000000     0.974530000000     0          
T        Si     0.524403333333     0.888560000000     0.063090000000     0          
T        Si     0.523800000000     0.887826666667     0.896350000000     0          
T        Si     0.524060000000     0.888746666667     0.141220000000     0          
T        Si     0.412793333333     0.666813333333     0.974530000000     0          
T        Si     0.444773333333     0.969176666667     0.063090000000     0          
T        Si     0.445506666667     0.969306666667     0.896350000000     0          
T        Si     0.444586666667     0.968646666667     0.141220000000     0          
T        Si     0.666520000000     0.745980000000     0.974530000000     0          
T        Si     0.364156666667     0.808930000000     0.063090000000     0          
T        Si     0.364026666667     0.809533333333     0.896350000000     0          
T        Si     0.364686666667     0.809273333333     0.141220000000     0          
T        Si     0.587206666667     0.920686666667     0.025470000000     0          
T        Si     0.555226666667     0.857736666667     0.936910000000     0          
T        Si     0.554493333333     0.857133333333     0.103650000000     0          
T        Si     0.555413333333     0.857393333333     0.858780000000     0          
T        Si     0.412646666667     0.999853333333     0.025470000000     0          
T        Si     0.475596666667     0.697490000000     0.936910000000     0          
T        Si     0.476200000000     0.697360000000     0.103650000000     0          
T        Si     0.475940000000     0.698020000000     0.858780000000     0          
T        Si     0.333480000000     0.746126666667     0.025470000000     0          
T        Si     0.635843333333     0.778106666667     0.936910000000     0          
T        Si     0.635973333333     0.778840000000     0.103650000000     0          
T        Si     0.635313333333     0.777920000000     0.858780000000     0          
T        Si     0.634868888889     0.857237777778     0.358803333333     0          
T        Si     0.364485555556     0.889217777778     0.270243333333     0          
T        Si     0.365088888889     0.889951111111     0.436983333333     0          
T        Si     0.364828888889     0.889031111111     0.192113333333     0          
T        Si     0.476095555556     0.777631111111     0.358803333333     0          
T        Si     0.444115555556     0.808601111111     0.270243333333     0          
T        Si     0.443382222222     0.808471111111     0.436983333333     0          
T        Si     0.444302222222     0.809131111111     0.192113333333     0          
T        Si     0.555702222222     0.698464444444     0.358803333333     0          
T        Si     0.524732222222     0.968847777778     0.270243333333     0          
T        Si     0.524862222222     0.968244444444     0.436983333333     0          
T        Si     0.524202222222     0.968504444444     0.192113333333     0          
T        Si     0.635015555556     0.857091111111     0.307863333333     0          
T        Si     0.333662222222     0.920041111111     0.396423333333     0          
T        Si     0.334395555556     0.920644444444     0.229683333333     0          
T        Si     0.333475555556     0.920384444444     0.474553333333     0          
T        Si     0.476242222222     0.777924444444     0.307863333333     0          
T        Si     0.413292222222     0.746954444444     0.396423333333     0          
T        Si     0.412688888889     0.747084444444     0.229683333333     0          
T        Si     0.412948888889     0.746424444444     0.474553333333     0          
T        Si     0.555408888889     0.698317777778     0.307863333333     0          
T        Si     0.586378888889     0.999671111111     0.396423333333     0          
T        Si     0.586248888889     0.998937777778     0.229683333333     0          
T        Si     0.586908888889     0.999857777778     0.474553333333     0          
T        Si     0.476242222222     0.698317777778     0.307863333333     0          
T        Si     0.413292222222     0.999671111111     0.396423333333     0          
T        Si     0.412688888889     0.998937777778     0.229683333333     0          
T        Si     0.412948888889     0.999857777778     0.474553333333     0          
T        Si     0.635015555556     0.777924444444     0.307863333333     0          
T        Si     0.333662222222     0.746954444444     0.396423333333     0          
T        Si     0.334395555556     0.747084444444     0.229683333333     0          
T        Si     0.333475555556     0.746424444444     0.474553333333     0          
T        Si     0.555408888889     0.857091111111     0.307863333333     0          
T        Si     0.586378888889     0.920041111111     0.396423333333     0          
T        Si     0.586248888889     0.920644444444     0.229683333333     0          
T        Si     0.586908888889     0.920384444444     0.474553333333     0          
T        Si     0.476095555556     0.698464444444     0.358803333333     0          
T        Si     0.444115555556     0.968847777778     0.270243333333     0          
T        Si     0.443382222222     0.968244444444     0.436983333333     0          
T        Si     0.444302222222     0.968504444444     0.192113333333     0          
T        Si     0.634868888889     0.777631111111     0.358803333333     0          
T        Si     0.364485555556     0.808601111111     0.270243333333     0          
T        Si     0.365088888889     0.808471111111     0.436983333333     0          
T        Si     0.364828888889     0.809131111111     0.192113333333     0          
T        Si     0.555702222222     0.857237777778     0.358803333333     0          
T        Si     0.524732222222     0.889217777778     0.270243333333     0          
T        Si     0.524862222222     0.889951111111     0.436983333333     0          
T        Si     0.524202222222     0.889031111111     0.192113333333     0          
T        Si     0.523757777778     0.968348888889     0.692136666667     0          
T        Si     0.586707777778     0.666995555556     0.603576666667     0          
T        Si     0.587311111111     0.667728888889     0.770316666667     0          
T        Si     0.587051111111     0.666808888889     0.525446666667     0          
T        Si     0.364984444444     0.888742222222     0.692136666667     0          
T        Si     0.666337777778     0.919712222222     0.603576666667     0          
T        Si     0.665604444444     0.919582222222     0.770316666667     0          
T        Si     0.666524444444     0.920242222222     0.525446666667     0          
T        Si     0.444591111111     0.809575555556     0.692136666667     0          
T        Si     0.413621111111     0.746625555556     0.603576666667     0          
T        Si     0.413751111111     0.746022222222     0.770316666667     0          
T        Si     0.413091111111     0.746282222222     0.525446666667     0          
T        Si     0.523904444444     0.968202222222     0.641196666667     0          
T        Si     0.555884444444     0.697818888889     0.729756666667     0          
T        Si     0.556617777778     0.698422222222     0.563016666667     0          
T        Si     0.555697777778     0.698162222222     0.807886666667     0          
T        Si     0.365131111111     0.889035555556     0.641196666667     0          
T        Si     0.635514444444     0.858065555556     0.729756666667     0          
T        Si     0.634911111111     0.858195555556     0.563016666667     0          
T        Si     0.635171111111     0.857535555556     0.807886666667     0          
T        Si     0.444297777778     0.809428888889     0.641196666667     0          
T        Si     0.475267777778     0.777448888889     0.729756666667     0          
T        Si     0.475137777778     0.776715555556     0.563016666667     0          
T        Si     0.475797777778     0.777635555556     0.807886666667     0          
T        Si     0.365131111111     0.809428888889     0.641196666667     0          
T        Si     0.635514444444     0.777448888889     0.729756666667     0          
T        Si     0.634911111111     0.776715555556     0.563016666667     0          
T        Si     0.635171111111     0.777635555556     0.807886666667     0          
T        Si     0.523904444444     0.889035555556     0.641196666667     0          
T        Si     0.555884444444     0.858065555556     0.729756666667     0          
T        Si     0.556617777778     0.858195555556     0.563016666667     0          
T        Si     0.555697777778     0.857535555556     0.807886666667     0          
T        Si     0.444297777778     0.968202222222     0.641196666667     0          
T        Si     0.475267777778     0.697818888889     0.729756666667     0          
T        Si     0.475137777778     0.698422222222     0.563016666667     0          
T        Si     0.475797777778     0.698162222222     0.807886666667     0          
T        Si     0.364984444444     0.809575555556     0.692136666667     0          
T        Si     0.666337777778     0.746625555556     0.603576666667     0          
T        Si     0.665604444444     0.746022222222     0.770316666667     0          
T        Si     0.666524444444     0.746282222222     0.525446666667     0          
T        Si     0.523757777778     0.888742222222     0.692136666667     0          
T        Si     0.586707777778     0.919712222222     0.603576666667     0          
T        Si     0.587311111111     0.919582222222     0.770316666667     0          
T        Si     0.587051111111     0.920242222222     0.525446666667     0          
T        Si     0.444591111111     0.968348888889     0.692136666667     0          
T        Si     0.413621111111     0.666995555556     0.603576666667     0          
T        Si     0.413751111111     0.667728888889     0.770316666667     0          
T        Si     0.413091111111     0.666808888889     0.525446666667     0          
T        Si     0.745980000000     0.079460000000     0.025470000000     0          
T        Si     0.808930000000     0.111440000000     0.936910000000     0          
T        Si     0.809533333333     0.112173333333     0.103650000000     0          
T        Si     0.809273333333     0.111253333333     0.858780000000     0          
T        Si     0.920540000000     0.333186666667     0.025470000000     0          
T        Si     0.888560000000     0.030823333333     0.936910000000     0          
T        Si     0.887826666667     0.030693333333     0.103650000000     0          
T        Si     0.888746666667     0.031353333333     0.858780000000     0          
T        Si     0.666813333333     0.254020000000     0.025470000000     0          
T        Si     0.969176666667     0.191070000000     0.936910000000     0          
T        Si     0.969306666667     0.190466666667     0.103650000000     0          
T        Si     0.968646666667     0.190726666667     0.858780000000     0          
T        Si     0.746126666667     0.079313333333     0.974530000000     0          
T        Si     0.778106666667     0.142263333333     0.063090000000     0          
T        Si     0.778840000000     0.142866666667     0.896350000000     0          
T        Si     0.777920000000     0.142606666667     0.141220000000     0          
T        Si     0.920686666667     0.000146666667     0.974530000000     0          
T        Si     0.857736666667     0.302510000000     0.063090000000     0          
T        Si     0.857133333333     0.302640000000     0.896350000000     0          
T        Si     0.857393333333     0.301980000000     0.141220000000     0          
T        Si     0.999853333333     0.253873333333     0.974530000000     0          
T        Si     0.697490000000     0.221893333333     0.063090000000     0          
T        Si     0.697360000000     0.221160000000     0.896350000000     0          
T        Si     0.698020000000     0.222080000000     0.141220000000     0          
T        Si     0.920686666667     0.253873333333     0.974530000000     0          
T        Si     0.857736666667     0.221893333333     0.063090000000     0          
T        Si     0.857133333333     0.221160000000     0.896350000000     0          
T        Si     0.857393333333     0.222080000000     0.141220000000     0          
T        Si     0.746126666667     0.000146666667     0.974530000000     0          
T        Si     0.778106666667     0.302510000000     0.063090000000     0          
T        Si     0.778840000000     0.302640000000     0.896350000000     0          
T        Si     0.777920000000     0.301980000000     0.141220000000     0          
T        Si     0.999853333333     0.079313333333     0.974530000000     0          
T        Si     0.697490000000     0.142263333333     0.063090000000     0          
T        Si     0.697360000000     0.142866666667     0.896350000000     0          
T        Si     0.698020000000     0.142606666667     0.141220000000     0          
T        Si     0.920540000000     0.254020000000     0.025470000000     0          
T        Si     0.888560000000     0.191070000000     0.936910000000     0          
T        Si     0.887826666667     0.190466666667     0.103650000000     0          
T        Si     0.888746666667     0.190726666667     0.858780000000     0          
T        Si     0.745980000000     0.333186666667     0.025470000000     0          
T        Si     0.808930000000     0.030823333333     0.936910000000     0          
T        Si     0.809533333333     0.030693333333     0.103650000000     0          
T        Si     0.809273333333     0.031353333333     0.858780000000     0          
T        Si     0.666813333333     0.079460000000     0.025470000000     0          
T        Si     0.969176666667     0.111440000000     0.936910000000     0          
T        Si     0.969306666667     0.112173333333     0.103650000000     0          
T        Si     0.968646666667     0.111253333333     0.858780000000     0          
T        Si     0.968202222222     0.190571111111     0.358803333333     0          
T        Si     0.697818888889     0.222551111111     0.270243333333     0          
T        Si     0.698422222222     0.223284444444     0.436983333333     0          
T        Si     0.698162222222     0.222364444444     0.192113333333     0          
T        Si     0.809428888889     0.110964444444     0.358803333333     0          
T        Si     0.777448888889     0.141934444444     0.270243333333     0          
T        Si     0.776715555556     0.141804444444     0.436983333333     0          
T        Si     0.777635555556     0.142464444444     0.192113333333     0          
T        Si     0.889035555556     0.031797777778     0.358803333333     0          
T        Si     0.858065555556     0.302181111111     0.270243333333     0          
T        Si     0.858195555556     0.301577777778     0.436983333333     0          
T        Si     0.857535555556     0.301837777778     0.192113333333     0          
T        Si     0.968348888889     0.190424444444     0.307863333333     0          
T        Si     0.666995555556     0.253374444444     0.396423333333     0          
T        Si     0.667728888889     0.253977777778     0.229683333333     0          
T        Si     0.666808888889     0.253717777778     0.474553333333     0          
T        Si     0.809575555556     0.111257777778     0.307863333333     0          
T        Si     0.746625555556     0.080287777778     0.396423333333     0          
T        Si     0.746022222222     0.080417777778     0.229683333333     0          
T        Si     0.746282222222     0.079757777778     0.474553333333     0          
T        Si     0.888742222222     0.031651111111     0.307863333333     0          
T        Si     0.919712222222     0.333004444444     0.396423333333     0          
T        Si     0.919582222222     0.332271111111     0.229683333333     0          
T        Si     0.920242222222     0.333191111111     0.474553333333     0          
T        Si     0.809575555556     0.031651111111     0.307863333333     0          
T        Si     0.746625555556     0.333004444444     0.396423333333     0          
T        Si     0.746022222222     0.332271111111     0.229683333333     0          
T        Si     0.746282222222     0.333191111111     0.474553333333     0          
T        Si     0.968348888889     0.111257777778     0.307863333333     0          
T        Si     0.666995555556     0.080287777778     0.396423333333     0          
T        Si     0.667728888889     0.080417777778     0.229683333333     0          
T        Si     0.666808888889     0.079757777778     0.474553333333     0          
T        Si     0.888742222222     0.190424444444     0.307863333333     0          
T        Si     0.919712222222     0.253374444444     0.396423333333     0          
T        Si     0.919582222222     0.253977777778     0.229683333333     0          
T        Si     0.920242222222     0.253717777778     0.474553333333     0          
T        Si     0.809428888889     0.031797777778     0.358803333333     0          
T        Si     0.777448888889     0.302181111111     0.270243333333     0          
T        Si     0.776715555556     0.301577777778     0.436983333333     0          
T        Si     0.777635555556     0.301837777778     0.192113333333     0          
T        Si     0.968202222222     0.110964444444     0.358803333333     0          
T        Si     0.697818888889     0.141934444444     0.270243333333     0          
T        Si     0.698422222222     0.141804444444     0.436983333333     0          
T        Si     0.698162222222     0.142464444444     0.192113333333     0          
T        Si     0.889035555556     0.190571111111     0.358803333333     0          
T        Si     0.858065555556     0.222551111111     0.270243333333     0          
T        Si     0.858195555556     0.223284444444     0.436983333333     0          
T        Si     0.857535555556     0.222364444444     0.192113333333     0          
T        Si     0.857091111111     0.301682222222     0.692136666667     0          
T        Si     0.920041111111     0.000328888889     0.603576666667     0          
T        Si     0.920644444444     0.001062222222     0.770316666667     0          
T        Si     0.920384444444     0.000142222222     0.525446666667     0          
T        Si     0.698317777778     0.222075555556     0.692136666667     0          
T        Si     0.999671111111     0.253045555556     0.603576666667     0          
T        Si     0.998937777778     0.252915555556     0.770316666667     0          
T        Si     0.999857777778     0.253575555556     0.525446666667     0          
T        Si     0.777924444444     0.142908888889     0.692136666667     0          
T        Si     0.746954444444     0.079958888889     0.603576666667     0          
T        Si     0.747084444444     0.079355555556     0.770316666667     0          
T        Si     0.746424444444     0.079615555556     0.525446666667     0          
T        Si     0.857237777778     0.301535555556     0.641196666667     0          
T        Si     0.889217777778     0.031152222222     0.729756666667     0          
T        Si     0.889951111111     0.031755555556     0.563016666667     0          
T        Si     0.889031111111     0.031495555556     0.807886666667     0          
T        Si     0.698464444444     0.222368888889     0.641196666667     0          
T        Si     0.968847777778     0.191398888889     0.729756666667     0          
T        Si     0.968244444444     0.191528888889     0.563016666667     0          
T        Si     0.968504444444     0.190868888889     0.807886666667     0          
T        Si     0.777631111111     0.142762222222     0.641196666667     0          
T        Si     0.808601111111     0.110782222222     0.729756666667     0          
T        Si     0.808471111111     0.110048888889     0.563016666667     0          
T        Si     0.809131111111     0.110968888889     0.807886666667     0          
T        Si     0.698464444444     0.142762222222     0.641196666667     0          
T        Si     0.968847777778     0.110782222222     0.729756666667     0          
T        Si     0.968244444444     0.110048888889     0.563016666667     0          
T        Si     0.968504444444     0.110968888889     0.807886666667     0          
T        Si     0.857237777778     0.222368888889     0.641196666667     0          
T        Si     0.889217777778     0.191398888889     0.729756666667     0          
T        Si     0.889951111111     0.191528888889     0.563016666667     0          
T        Si     0.889031111111     0.190868888889     0.807886666667     0          
T        Si     0.777631111111     0.301535555556     0.641196666667     0          
T        Si     0.808601111111     0.031152222222     0.729756666667     0          
T        Si     0.808471111111     0.031755555556     0.563016666667     0          
T        Si     0.809131111111     0.031495555556     0.807886666667     0          
T        Si     0.698317777778     0.142908888889     0.692136666667     0          
T        Si     0.999671111111     0.079958888889     0.603576666667     0          
T        Si     0.998937777778     0.079355555556     0.770316666667     0          
T        Si     0.999857777778     0.079615555556     0.525446666667     0          
T        Si     0.857091111111     0.222075555556     0.692136666667     0          
T        Si     0.920041111111     0.253045555556     0.603576666667     0          
T        Si     0.920644444444     0.252915555556     0.770316666667     0          
T        Si     0.920384444444     0.253575555556     0.525446666667     0          
T        Si     0.777924444444     0.301682222222     0.692136666667     0          
T        Si     0.746954444444     0.000328888889     0.603576666667     0          
T        Si     0.747084444444     0.001062222222     0.770316666667     0          
T        Si     0.746424444444     0.000142222222     0.525446666667     0          
T        Si     0.745980000000     0.412793333333     0.025470000000     0          
T        Si     0.808930000000     0.444773333333     0.936910000000     0          
T        Si     0.809533333333     0.445506666667     0.103650000000     0          
T        Si     0.809273333333     0.444586666667     0.858780000000     0          
T        Si     0.920540000000     0.666520000000     0.025470000000     0          
T        Si     0.888560000000     0.364156666667     0.936910000000     0          
T        Si     0.887826666667     0.364026666667     0.103650000000     0          
T        Si     0.888746666667     0.364686666667     0.858780000000     0          
T        Si     0.666813333333     0.587353333333     0.025470000000     0          
T        Si     0.969176666667     0.524403333333     0.936910000000     0          
T        Si     0.969306666667     0.523800000000     0.103650000000     0          
T        Si     0.968646666667     0.524060000000     0.858780000000     0          
T        Si     0.746126666667     0.412646666667     0.974530000000     0          
T        Si     0.778106666667     0.475596666667     0.063090000000     0          
T        Si     0.778840000000     0.476200000000     0.896350000000     0          
T        Si     0.777920000000     0.475940000000     0.141220000000     0          
T        Si     0.920686666667     0.333480000000     0.974530000000     0          
T        Si     0.857736666667     0.635843333333     0.063090000000     0          
T        Si     0.857133333333     0.635973333333     0.896350000000     0          
T        Si     0.857393333333     0.635313333333     0.141220000000     0          
T        Si     0.999853333333     0.587206666667     0.974530000000     0          
T        Si     0.697490000000     0.555226666667     0.063090000000     0          
T        Si     0.697360000000     0.554493333333     0.896350000000     0          
T        Si     0.698020000000     0.555413333333     0.141220000000     0          
T        Si     0.920686666667     0.587206666667     0.974530000000     0          
T        Si     0.857736666667     0.555226666667     0.063090000000     0          
T        Si     0.857133333333     0.554493333333     0.896350000000     0          
T        Si     0.857393333333     0.555413333333     0.141220000000     0          
T        Si     0.746126666667     0.333480000000     0.974530000000     0          
T        Si     0.778106666667     0.635843333333     0.063090000000     0          
T        Si     0.778840000000     0.635973333333     0.896350000000     0          
T        Si     0.777920000000     0.635313333333     0.141220000000     0          
T        Si     0.999853333333     0.412646666667     0.974530000000     0          
T        Si     0.697490000000     0.475596666667     0.063090000000     0          
T        Si     0.697360000000     0.476200000000     0.896350000000     0          
T        Si     0.698020000000     0.475940000000     0.141220000000     0          
T        Si     0.920540000000     0.587353333333     0.025470000000     0          
T        Si     0.888560000000     0.524403333333     0.936910000000     0          
T        Si     0.887826666667     0.523800000000     0.103650000000     0          
T        Si     0.888746666667     0.524060000000     0.858780000000     0          
T        Si     0.745980000000     0.666520000000     0.025470000000     0          
T        Si     0.808930000000     0.364156666667     0.936910000000     0          
T        Si     0.809533333333     0.364026666667     0.103650000000     0          
T        Si     0.809273333333     0.364686666667     0.858780000000     0          
T        Si     0.666813333333     0.412793333333     0.025470000000     0          
T        Si     0.969176666667     0.444773333333     0.936910000000     0          
T        Si     0.969306666667     0.445506666667     0.103650000000     0          
T        Si     0.968646666667     0.444586666667     0.858780000000     0          
T        Si     0.968202222222     0.523904444444     0.358803333333     0          
T        Si     0.697818888889     0.555884444444     0.270243333333     0          
T        Si     0.698422222222     0.556617777778     0.436983333333     0          
T        Si     0.698162222222     0.555697777778     0.192113333333     0          
T        Si     0.809428888889     0.444297777778     0.358803333333     0          
T        Si     0.777448888889     0.475267777778     0.270243333333     0          
T        Si     0.776715555556     0.475137777778     0.436983333333     0          
T        Si     0.777635555556     0.475797777778     0.192113333333     0          
T        Si     0.889035555556     0.365131111111     0.358803333333     0          
T        Si     0.858065555556     0.635514444444     0.270243333333     0          
T        Si     0.858195555556     0.634911111111     0.436983333333     0          
T        Si     0.857535555556     0.635171111111     0.192113333333     0          
T        Si     0.968348888889     0.523757777778     0.307863333333     0          
T        Si     0.666995555556     0.586707777778     0.396423333333     0          
T        Si     0.667728888889     0.587311111111     0.229683333333     0          
T        Si     0.666808888889     0.587051111111     0.474553333333     0          
T        Si     0.809575555556     0.444591111111     0.307863333333     0          
T        Si     0.746625555556     0.413621111111     0.396423333333     0          
T        Si     0.746022222222     0.413751111111     0.229683333333     0          
T        Si     0.746282222222     0.413091111111     0.474553333333     0          
T        Si     0.888742222222     0.364984444444     0.307863333333     0          
T        Si     0.919712222222     0.666337777778     0.396423333333     0          
T        Si     0.919582222222     0.665604444444     0.229683333333     0          
T        Si     0.920242222222     0.666524444444     0.474553333333     0          
T        Si     0.809575555556     0.364984444444     0.307863333333     0          
T        Si     0.746625555556     0.666337777778     0.396423333333     0          
T        Si     0.746022222222     0.665604444444     0.229683333333     0          
T        Si     0.746282222222     0.666524444444     0.474553333333     0          
T        Si     0.968348888889     0.444591111111     0.307863333333     0          
T        Si     0.666995555556     0.413621111111     0.396423333333     0          
T        Si     0.667728888889     0.413751111111     0.229683333333     0          
T        Si     0.666808888889     0.413091111111     0.474553333333     0          
T        Si     0.888742222222     0.523757777778     0.307863333333     0          
T        Si     0.919712222222     0.586707777778     0.396423333333     0          
T        Si     0.919582222222     0.587311111111     0.229683333333     0          
T        Si     0.920242222222     0.587051111111     0.474553333333     0          
T        Si     0.809428888889     0.365131111111     0.358803333333     0          
T        Si     0.777448888889     0.635514444444     0.270243333333     0          
T        Si     0.776715555556     0.634911111111     0.436983333333     0          
T        Si     0.777635555556     0.635171111111     0.192113333333     0          
T        Si     0.968202222222     0.444297777778     0.358803333333     0          
T        Si     0.697818888889     0.475267777778     0.270243333333     0          
T        Si     0.698422222222     0.475137777778     0.436983333333     0          
T        Si     0.698162222222     0.475797777778     0.192113333333     0          
T        Si     0.889035555556     0.523904444444     0.358803333333     0          
T        Si     0.858065555556     0.555884444444     0.270243333333     0          
T        Si     0.858195555556     0.556617777778     0.436983333333     0          
T        Si     0.857535555556     0.555697777778     0.192113333333     0          
T        Si     0.857091111111     0.635015555556     0.692136666667     0          
T        Si     0.920041111111     0.333662222222     0.603576666667     0          
T        Si     0.920644444444     0.334395555556     0.770316666667     0          
T        Si     0.920384444444     0.333475555556     0.525446666667     0          
T        Si     0.698317777778     0.555408888889     0.692136666667     0          
T        Si     0.999671111111     0.586378888889     0.603576666667     0          
T        Si     0.998937777778     0.586248888889     0.770316666667     0          
T        Si     0.999857777778     0.586908888889     0.525446666667     0          
T        Si     0.777924444444     0.476242222222     0.692136666667     0          
T        Si     0.746954444444     0.413292222222     0.603576666667     0          
T        Si     0.747084444444     0.412688888889     0.770316666667     0          
T        Si     0.746424444444     0.412948888889     0.525446666667     0          
T        Si     0.857237777778     0.634868888889     0.641196666667     0          
T        Si     0.889217777778     0.364485555556     0.729756666667     0          
T        Si     0.889951111111     0.365088888889     0.563016666667     0          
T        Si     0.889031111111     0.364828888889     0.807886666667     0          
T        Si     0.698464444444     0.555702222222     0.641196666667     0          
T        Si     0.968847777778     0.524732222222     0.729756666667     0          
T        Si     0.968244444444     0.524862222222     0.563016666667     0          
T        Si     0.968504444444     0.524202222222     0.807886666667     0          
T        Si     0.777631111111     0.476095555556     0.641196666667     0          
T        Si     0.808601111111     0.444115555556     0.729756666667     0          
T        Si     0.808471111111     0.443382222222     0.563016666667     0          
T        Si     0.809131111111     0.444302222222     0.807886666667     0          
T        Si     0.698464444444     0.476095555556     0.641196666667     0          
T        Si     0.968847777778     0.444115555556     0.729756666667     0          
T        Si     0.968244444444     0.443382222222     0.563016666667     0          
T        Si     0.968504444444     0.444302222222     0.807886666667     0          
T        Si     0.857237777778     0.555702222222     0.641196666667     0          
T        Si     0.889217777778     0.524732222222     0.729756666667     0          
T        Si     0.889951111111     0.524862222222     0.563016666667     0          
T        Si     0.889031111111     0.524202222222     0.807886666667     0          
T        Si     0.777631111111     0.634868888889     0.641196666667     0          
T        Si     0.808601111111     0.364485555556     0.729756666667     0          
T        Si     0.808471111111     0.365088888889     0.563016666667     0          
T        Si     0.809131111111     0.364828888889     0.807886666667     0          
T        Si     0.698317777778     0.476242222222     0.692136666667     0          
T        Si     0.999671111111     0.413292222222     0.603576666667     0          
T        Si     0.998937777778     0.412688888889     0.770316666667     0          
T        Si     0.999857777778     0.412948888889     0.525446666667     0          
T        Si     0.857091111111     0.555408888889     0.692136666667     0          
T        Si     0.920041111111     0.586378888889     0.603576666667     0          
T        Si     0.920644444444     0.586248888889     0.770316666667     0          
T        Si     0.920384444444     0.586908888889     0.525446666667     0          
T        Si     0.777924444444     0.635015555556     0.692136666667     0          
T        Si     0.746954444444     0.333662222222     0.603576666667     0          
T        Si     0.747084444444     0.334395555556     0.770316666667     0          
T        Si     0.746424444444     0.333475555556     0.525446666667     0          
T        Si     0.745980000000     0.746126666667     0.025470000000     0          
T        Si     0.808930000000     0.778106666667     0.936910000000     0          
T        Si     0.809533333333     0.778840000000     0.103650000000     0          
T        Si     0.809273333333     0.777920000000     0.858780000000     0          
T        Si     0.920540000000     0.999853333333     0.025470000000     0          
T        Si     0.888560000000     0.697490000000     0.936910000000     0          
T        Si     0.887826666667     0.697360000000     0.103650000000     0          
T        Si     0.888746666667     0.698020000000     0.858780000000     0          
T        Si     0.666813333333     0.920686666667     0.025470000000     0          
T        Si     0.969176666667     0.857736666667     0.936910000000     0          
T        Si     0.969306666667     0.857133333333     0.103650000000     0          
T        Si     0.968646666667     0.857393333333     0.858780000000     0          
T        Si     0.746126666667     0.745980000000     0.974530000000     0          
T        Si     0.778106666667     0.808930000000     0.063090000000     0          
T        Si     0.778840000000     0.809533333333     0.896350000000     0          
T        Si     0.777920000000     0.809273333333     0.141220000000     0          
T        Si     0.920686666667     0.666813333333     0.974530000000     0          
T        Si     0.857736666667     0.969176666667     0.063090000000     0          
T        Si     0.857133333333     0.969306666667     0.896350000000     0          
T        Si     0.857393333333     0.968646666667     0.141220000000     0          
T        Si     0.999853333333     0.920540000000     0.974530000000     0          
T        Si     0.697490000000     0.888560000000     0.063090000000     0          
T        Si     0.697360000000     0.887826666667     0.896350000000     0          
T        Si     0.698020000000     0.888746666667     0.141220000000     0          
T        Si     0.920686666667     0.920540000000     0.974530000000     0          
T        Si     0.857736666667     0.888560000000     0.063090000000     0          
T        Si     0.857133333333     0.887826666667     0.896350000000     0          
T        Si     0.857393333333     0.888746666667     0.141220000000     0          
T        Si     0.746126666667     0.666813333333     0.974530000000     0          
T        Si     0.778106666667     0.969176666667     0.063090000000     0          
T        Si     0.778840000000     0.969306666667     0.896350000000     0          
T        Si     0.777920000000     0.968646666667     0.141220000000     0          
T        Si     0.999853333333     0.745980000000     0.974530000000     0          
T        Si     0.697490000000     0.808930000000     0.063090000000     0          
T        Si     0.697360000000     0.809533333333     0.896350000000     0          
T        Si     0.698020000000     0.809273333333     0.141220000000     0          
T        Si     0.920540000000     0.920686666667     0.025470000000     0          
T        Si     0.888560000000     0.857736666667     0.936910000000     0          
T        Si     0.887826666667     0.857133333333     0.103650000000     0          
T        Si     0.888746666667     0.857393333333     0.858780000000     0          
T        Si     0.745980000000     0.999853333333     0.025470000000     0          
T        Si     0.808930000000     0.697490000000     0.936910000000     0          
T        Si     0.809533333333     0.697360000000     0.103650000000     0          
T        Si     0.809273333333     0.698020000000     0.858780000000     0          
T        Si     0.666813333333     0.746126666667     0.025470000000     0          
T        Si     0.969176666667     0.778106666667     0.936910000000     0          
T        Si     0.969306666667     0.778840000000     0.103650000000     0          
T        Si     0.968646666667     0.777920000000     0.858780000000     0          
T        Si     0.968202222222     0.857237777778     0.358803333333     0          
T        Si     0.697818888889     0.889217777778     0.270243333333     0          
T        Si     0.698422222222     0.889951111111     0.436983333333     0          
T        Si     0.698162222222     0.889031111111     0.192113333333     0          
T        Si     0.809428888889     0.777631111111     0.358803333333     0          
T        Si     0.777448888889     0.808601111111     0.270243333333     0          
T        Si     0.776715555556     0.808471111111     0.436983333333     0          
T        Si     0.777635555556     0.809131111111     0.192113333333     0          
T        Si     0.889035555556     0.698464444444     0.358803333333     0          
T        Si     0.858065555556     0.968847777778     0.270243333333     0          
T        Si     0.858195555556     0.968244444444     0.436983333333     0          
T        Si     0.857535555556     0.968504444444     0.192113333333     0          
T        Si     0.968348888889     0.857091111111     0.307863333333     0          
T        Si     0.666995555556     0.920041111111     0.396423333333     0          
T        Si     0.667728888889     0.920644444444     0.229683333333     0          
T        Si     0.666808888889     0.920384444444     0.474553333333     0          
T        Si     0.809575555556     0.777924444444     0.307863333333     0          
T        Si     0.746625555556     0.746954444444     0.396423333333     0          
T        Si     0.746022222222     0.747084444444     0.229683333333     0          
T        Si     0.746282222222     0.746424444444     0.474553333333     0          
T        Si     0.888742222222     0.698317777778     0.307863333333     0          
T        Si     0.919712222222     0.999671111111     0.396423333333     0          
T        Si     0.919582222222     0.998937777778     0.229683333333     0          
T        Si     0.920242222222     0.999857777778     0.474553333333     0          
T        Si     0.809575555556     0.698317777778     0.307863333333     0          
T        Si     0.746625555556     0.999671111111     0.396423333333     0          
T        Si     0.746022222222     0.998937777778     0.229683333333     0          
T        Si     0.746282222222     0.999857777778     0.474553333333     0          
T        Si     0.968348888889     0.777924444444     0.307863333333     0          
T        Si     0.666995555556     0.746954444444     0.396423333333     0          
T        Si     0.667728888889     0.747084444444     0.229683333333     0          
T        Si     0.666808888889     0.746424444444     0.474553333333     0          
T        Si     0.888742222222     0.857091111111     0.307863333333     0          
T        Si     0.919712222222     0.920041111111     0.396423333333     0          
T        Si     0.919582222222     0.920644444444     0.229683333333     0          
T        Si     0.920242222222     0.920384444444     0.474553333333     0          
T        Si     0.809428888889     0.698464444444     0.358803333333     0          
T        Si     0.777448888889     0.968847777778     0.270243333333     0          
T        Si     0.776715555556     0.968244444444     0.436983333333     0          
T        Si     0.777635555556     0.968504444444     0.192113333333     0          
T        Si     0.968202222222     0.777631111111     0.358803333333     0          
T        Si     0.697818888889     0.808601111111     0.270243333333     0          
T        Si     0.698422222222     0.808471111111     0.436983333333     0          
T        Si     0.698162222222     0.809131111111     0.192113333333     0          
T        Si     0.889035555556     0.857237777778     0.358803333333     0          
T        Si     0.858065555556     0.889217777778     0.270243333333     0          
T        Si     0.858195555556     0.889951111111     0.436983333333     0          
T        Si     0.857535555556     0.889031111111     0.192113333333     0          
T        Si     0.857091111111     0.968348888889     0.692136666667     0          
T        Si     0.920041111111     0.666995555556     0.603576666667     0          
T        Si     0.920644444444     0.667728888889     0.770316666667     0          
T        Si     0.920384444444     0.666808888889     0.525446666667     0          
T        Si     0.698317777778     0.888742222222     0.692136666667     0          
T        Si     0.999671111111     0.919712222222     0.603576666667     0          
T        Si     0.998937777778     0.919582222222     0.770316666667     0          
T        Si     0.999857777778     0.920242222222     0.525446666667     0          
T        Si     0.777924444444     0.809575555556     0.692136666667     0          
T        Si     0.746954444444     0.746625555556     0.603576666667     0          
T        Si     0.747084444444     0.746022222222     0.770316666667     0          
T        Si     0.746424444444     0.746282222222     0.525446666667     0          
T        Si     0.857237777778     0.968202222222     0.641196666667     0          
T        Si     0.889217777778     0.697818888889     0.729756666667     0          
T        Si     0.889951111111     0.698422222222     0.563016666667     0          
T        Si     0.889031111111     0.698162222222     0.807886666667     0          
T        Si     0.698464444444     0.889035555556     0.641196666667     0          
T        Si     0.968847777778     0.858065555556     0.729756666667     0          
T        Si     0.968244444444     0.858195555556     0.563016666667     0          
T        Si     0.968504444444     0.857535555556     0.807886666667     0          
T        Si     0.777631111111     0.809428888889     0.641196666667     0          
T        Si     0.808601111111     0.777448888889     0.729756666667     0          
T        Si     0.808471111111     0.776715555556     0.563016666667     0          
T        Si     0.809131111111     0.777635555556     0.807886666667     0          
T        Si     0.698464444444     0.809428888889     0.641196666667     0          
T        Si     0.968847777778     0.777448888889     0.729756666667     0          
T        Si     0.968244444444     0.776715555556     0.563016666667     0          
T        Si     0.968504444444     0.777635555556     0.807886666667     0          
T        Si     0.857237777778     0.889035555556     0.641196666667     0          
T        Si     0.889217777778     0.858065555556     0.729756666667     0          
T        Si     0.889951111111     0.858195555556     0.563016666667     0          
T        Si     0.889031111111     0.857535555556     0.807886666667     0          
T        Si     0.777631111111     0.968202222222     0.641196666667     0          
T        Si     0.808601111111     0.697818888889     0.729756666667     0          
T        Si     0.808471111111     0.698422222222     0.563016666667     0          
T        Si     0.809131111111     0.698162222222     0.807886666667     0          
T        Si     0.698317777778     0.809575555556     0.692136666667     0          
T        Si     0.999671111111     0.746625555556     0.603576666667     0          
T        Si     0.998937777778     0.746022222222     0.770316666667     0          
T        Si     0.999857777778     0.746282222222     0.525446666667     0          
T        Si     0.857091111111     0.888742222222     0.692136666667     0          
T        Si     0.920041111111     0.919712222222     0.603576666667     0          
T        Si     0.920644444444     0.919582222222     0.770316666667     0          
T        Si     0.920384444444     0.920242222222     0.525446666667     0          
T        Si     0.777924444444     0.968348888889     0.692136666667     0          
T        Si     0.746954444444     0.666995555556     0.603576666667     0          
T        Si     0.747084444444     0.667728888889     0.770316666667     0          
T        Si     0.746424444444     0.666808888889     0.525446666667     0          
O        O      0.032900000000     0.065800000000     0.028960000000     0          
O        O      0.106423333333     0.117820000000     0.040690000000     0          
O        O      0.091180000000     0.091180000000     0.000000000000     0          
O        O      0.086773333333     0.043386666667     0.032150000000     0          
O        O      0.123446666667     0.124833333333     0.917280000000     0          
O        O      0.188433333333     0.144900000000     0.940360000000     0          
O        O      0.139113333333     0.069556666667     0.930480000000     0          
O        O      0.190170000000     0.143163333333     0.105190000000     0          
O        O      0.134740000000     0.067370000000     0.100640000000     0          
O        O      0.121470000000     0.114913333333     0.125840000000     0          
O        O      0.188813333333     0.144520000000     0.862360000000     0          
O        O      0.135893333333     0.067946666667     0.865330000000     0          
O        O      0.130616666667     0.111110000000     0.833330000000     0          
O        O      0.267533333333     0.300433333333     0.028960000000     0          
O        O      0.215513333333     0.321936666667     0.040690000000     0          
O        O      0.242153333333     0.000000000000     0.000000000000     0          
O        O      0.289946666667     0.043386666667     0.032150000000     0          
O        O      0.208500000000     0.331946666667     0.917280000000     0          
O        O      0.188433333333     0.043533333333     0.940360000000     0          
O        O      0.263776666667     0.069556666667     0.930480000000     0          
O        O      0.190170000000     0.047006666667     0.105190000000     0          
O        O      0.265963333333     0.067370000000     0.100640000000     0          
O        O      0.218420000000     0.006556666667     0.125840000000     0          
O        O      0.188813333333     0.044293333333     0.862360000000     0          
O        O      0.265386666667     0.067946666667     0.865330000000     0          
O        O      0.222223333333     0.019506666667     0.833330000000     0          
O        O      0.032900000000     0.300433333333     0.028960000000     0          
O        O      0.011396666667     0.226910000000     0.040690000000     0          
O        O      0.000000000000     0.242153333333     0.000000000000     0          
O        O      0.289946666667     0.246560000000     0.032150000000     0          
O        O      0.001386666667     0.209886666667     0.917280000000     0          
O        O      0.289800000000     0.144900000000     0.940360000000     0          
O        O      0.263776666667     0.194220000000     0.930480000000     0          
O        O      0.286326666667     0.143163333333     0.105190000000     0          
O        O      0.265963333333     0.198593333333     0.100640000000     0          
O        O      0.326776666667     0.211863333333     0.125840000000     0          
O        O      0.289040000000     0.144520000000     0.862360000000     0          
O        O      0.265386666667     0.197440000000     0.865330000000     0          
O        O      0.313826666667     0.202716666667     0.833330000000     0          
O        O      0.065800000000     0.032900000000     0.971040000000     0          
O        O      0.117820000000     0.106423333333     0.959310000000     0          
O        O      0.043386666667     0.086773333333     0.967850000000     0          
O        O      0.124833333333     0.123446666667     0.082720000000     0          
O        O      0.144900000000     0.188433333333     0.059640000000     0          
O        O      0.069556666667     0.139113333333     0.069520000000     0          
O        O      0.143163333333     0.190170000000     0.894810000000     0          
O        O      0.067370000000     0.134740000000     0.899360000000     0          
O        O      0.114913333333     0.121470000000     0.874160000000     0          
O        O      0.144520000000     0.188813333333     0.137640000000     0          
O        O      0.067946666667     0.135893333333     0.134670000000     0          
O        O      0.111110000000     0.130616666667     0.166670000000     0          
O        O      0.300433333333     0.032900000000     0.971040000000     0          
O        O      0.226910000000     0.011396666667     0.959310000000     0          
O        O      0.246560000000     0.289946666667     0.967850000000     0          
O        O      0.209886666667     0.001386666667     0.082720000000     0          
O        O      0.144900000000     0.289800000000     0.059640000000     0          
O        O      0.194220000000     0.263776666667     0.069520000000     0          
O        O      0.143163333333     0.286326666667     0.894810000000     0          
O        O      0.198593333333     0.265963333333     0.899360000000     0          
O        O      0.211863333333     0.326776666667     0.874160000000     0          
O        O      0.144520000000     0.289040000000     0.137640000000     0          
O        O      0.197440000000     0.265386666667     0.134670000000     0          
O        O      0.202716666667     0.313826666667     0.166670000000     0          
O        O      0.300433333333     0.267533333333     0.971040000000     0          
O        O      0.321936666667     0.215513333333     0.959310000000     0          
O        O      0.043386666667     0.289946666667     0.967850000000     0          
O        O      0.331946666667     0.208500000000     0.082720000000     0          
O        O      0.043533333333     0.188433333333     0.059640000000     0          
O        O      0.069556666667     0.263776666667     0.069520000000     0          
O        O      0.047006666667     0.190170000000     0.894810000000     0          
O        O      0.067370000000     0.265963333333     0.899360000000     0          
O        O      0.006556666667     0.218420000000     0.874160000000     0          
O        O      0.044293333333     0.188813333333     0.137640000000     0          
O        O      0.067946666667     0.265386666667     0.134670000000     0          
O        O      0.019506666667     0.222223333333     0.166670000000     0          
O        O      0.226910000000     0.215513333333     0.959310000000     0          
O        O      0.242153333333     0.242153333333     0.000000000000     0          
O        O      0.209886666667     0.208500000000     0.082720000000     0          
O        O      0.211863333333     0.218420000000     0.874160000000     0          
O        O      0.202716666667     0.222223333333     0.166670000000     0          
O        O      0.117820000000     0.011396666667     0.959310000000     0          
O        O      0.091180000000     0.000000000000     0.000000000000     0          
O        O      0.124833333333     0.001386666667     0.082720000000     0          
O        O      0.114913333333     0.326776666667     0.874160000000     0          
O        O      0.111110000000     0.313826666667     0.166670000000     0          
O        O      0.321936666667     0.106423333333     0.959310000000     0          
O        O      0.000000000000     0.091180000000     0.000000000000     0          
O        O      0.331946666667     0.123446666667     0.082720000000     0          
O        O      0.006556666667     0.121470000000     0.874160000000     0          
O        O      0.019506666667     0.130616666667     0.166670000000     0          
O        O      0.215513333333     0.226910000000     0.040690000000     0          
O        O      0.208500000000     0.209886666667     0.917280000000     0          
O        O      0.218420000000     0.211863333333     0.125840000000     0          
O        O      0.222223333333     0.202716666667     0.833330000000     0          
O        O      0.106423333333     0.321936666667     0.040690000000     0          
O        O      0.123446666667     0.331946666667     0.917280000000     0          
O        O      0.121470000000     0.006556666667     0.125840000000     0          
O        O      0.130616666667     0.019506666667     0.833330000000     0          
O        O      0.011396666667     0.117820000000     0.040690000000     0          
O        O      0.001386666667     0.124833333333     0.917280000000     0          
O        O      0.326776666667     0.114913333333     0.125840000000     0          
O        O      0.313826666667     0.111110000000     0.833330000000     0          
O        O      0.255122222222     0.176911111111     0.362293333333     0          
O        O      0.328645555556     0.228931111111     0.374023333333     0          
O        O      0.313402222222     0.202291111111     0.333333333333     0          
O        O      0.308995555556     0.154497777778     0.365483333333     0          
O        O      0.012335555556     0.235944444444     0.250613333333     0          
O        O      0.077322222222     0.256011111111     0.273693333333     0          
O        O      0.028002222222     0.180667777778     0.263813333333     0          
O        O      0.079058888889     0.254274444444     0.438523333333     0          
O        O      0.023628888889     0.178481111111     0.433973333333     0          
O        O      0.010358888889     0.226024444444     0.459173333333     0          
O        O      0.077702222222     0.255631111111     0.195693333333     0          
O        O      0.024782222222     0.179057777778     0.198663333333     0          
O        O      0.156422222222     0.078211111111     0.362293333333     0          
O        O      0.104402222222     0.099714444444     0.374023333333     0          
O        O      0.131042222222     0.111111111111     0.333333333333     0          
O        O      0.178835555556     0.154497777778     0.365483333333     0          
O        O      0.097388888889     0.109724444444     0.250613333333     0          
O        O      0.077322222222     0.154644444444     0.273693333333     0          
O        O      0.152665555556     0.180667777778     0.263813333333     0          
O        O      0.079058888889     0.158117777778     0.438523333333     0          
O        O      0.154852222222     0.178481111111     0.433973333333     0          
O        O      0.107308888889     0.117667777778     0.459173333333     0          
O        O      0.077702222222     0.155404444444     0.195693333333     0          
O        O      0.154275555556     0.179057777778     0.198663333333     0          
O        O      0.255122222222     0.078211111111     0.362293333333     0          
O        O      0.233618888889     0.004687777778     0.374023333333     0          
O        O      0.222222222222     0.019931111111     0.333333333333     0          
O        O      0.178835555556     0.024337777778     0.365483333333     0          
O        O      0.223608888889     0.320997777778     0.250613333333     0          
O        O      0.178688888889     0.256011111111     0.273693333333     0          
O        O      0.152665555556     0.305331111111     0.263813333333     0          
O        O      0.175215555556     0.254274444444     0.438523333333     0          
O        O      0.154852222222     0.309704444444     0.433973333333     0          
O        O      0.215665555556     0.322974444444     0.459173333333     0          
O        O      0.177928888889     0.255631111111     0.195693333333     0          
O        O      0.154275555556     0.308551111111     0.198663333333     0          
O        O      0.288022222222     0.144011111111     0.304373333333     0          
O        O      0.006708888889     0.217534444444     0.292643333333     0          
O        O      0.265608888889     0.197884444444     0.301183333333     0          
O        O      0.013722222222     0.234557777778     0.416053333333     0          
O        O      0.033788888889     0.299544444444     0.392973333333     0          
O        O      0.291778888889     0.250224444444     0.402853333333     0          
O        O      0.032052222222     0.301281111111     0.228143333333     0          
O        O      0.289592222222     0.245851111111     0.232693333333     0          
O        O      0.003802222222     0.232581111111     0.207493333333     0          
O        O      0.033408888889     0.299924444444     0.470973333333     0          
O        O      0.290168888889     0.247004444444     0.468003333333     0          
O        O      0.333332222222     0.241727777778     0.500003333333     0          
O        O      0.189322222222     0.144011111111     0.304373333333     0          
O        O      0.115798888889     0.122507777778     0.292643333333     0          
O        O      0.135448888889     0.067724444444     0.301183333333     0          
O        O      0.098775555556     0.112497777778     0.416053333333     0          
O        O      0.033788888889     0.067577777778     0.392973333333     0          
O        O      0.083108888889     0.041554444444     0.402853333333     0          
O        O      0.032052222222     0.064104444444     0.228143333333     0          
O        O      0.087482222222     0.043741111111     0.232693333333     0          
O        O      0.100752222222     0.104554444444     0.207493333333     0          
O        O      0.033408888889     0.066817777778     0.470973333333     0          
O        O      0.086328888889     0.043164444444     0.468003333333     0          
O        O      0.091605555556     0.091604444444     0.500003333333     0          
O        O      0.189322222222     0.045311111111     0.304373333333     0          
O        O      0.210825555556     0.326624444444     0.292643333333     0          
O        O      0.265608888889     0.067724444444     0.301183333333     0          
O        O      0.220835555556     0.319611111111     0.416053333333     0          
O        O      0.265755555556     0.299544444444     0.392973333333     0          
O        O      0.291778888889     0.041554444444     0.402853333333     0          
O        O      0.269228888889     0.301281111111     0.228143333333     0          
O        O      0.289592222222     0.043741111111     0.232693333333     0          
O        O      0.228778888889     0.329531111111     0.207493333333     0          
O        O      0.266515555556     0.299924444444     0.470973333333     0          
O        O      0.290168888889     0.043164444444     0.468003333333     0          
O        O      0.241728888889     0.000001111111     0.500003333333     0          
O        O      0.115798888889     0.326624444444     0.292643333333     0          
O        O      0.131042222222     0.019931111111     0.333333333333     0          
O        O      0.098775555556     0.319611111111     0.416053333333     0          
O        O      0.100752222222     0.329531111111     0.207493333333     0          
O        O      0.091605555556     0.000001111111     0.500003333333     0          
O        O      0.006708888889     0.122507777778     0.292643333333     0          
O        O      0.313402222222     0.111111111111     0.333333333333     0          
O        O      0.013722222222     0.112497777778     0.416053333333     0          
O        O      0.003802222222     0.104554444444     0.207493333333     0          
O        O      0.333332222222     0.091604444444     0.500003333333     0          
O        O      0.210825555556     0.217534444444     0.292643333333     0          
O        O      0.222222222222     0.202291111111     0.333333333333     0          
O        O      0.220835555556     0.234557777778     0.416053333333     0          
O        O      0.228778888889     0.232581111111     0.207493333333     0          
O        O      0.241728888889     0.241727777778     0.500003333333     0          
O        O      0.104402222222     0.004687777778     0.374023333333     0          
O        O      0.097388888889     0.320997777778     0.250613333333     0          
O        O      0.107308888889     0.322974444444     0.459173333333     0          
O        O      0.328645555556     0.099714444444     0.374023333333     0          
O        O      0.012335555556     0.109724444444     0.250613333333     0          
O        O      0.010358888889     0.117667777778     0.459173333333     0          
O        O      0.233618888889     0.228931111111     0.374023333333     0          
O        O      0.223608888889     0.235944444444     0.250613333333     0          
O        O      0.215665555556     0.226024444444     0.459173333333     0          
O        O      0.144011111111     0.288022222222     0.695626666667     0          
O        O      0.217534444444     0.006708888889     0.707356666667     0          
O        O      0.202291111111     0.313402222222     0.666666666667     0          
O        O      0.197884444444     0.265608888889     0.698816666667     0          
O        O      0.234557777778     0.013722222222     0.583946666667     0          
O        O      0.299544444444     0.033788888889     0.607026666667     0          
O        O      0.250224444444     0.291778888889     0.597146666667     0          
O        O      0.301281111111     0.032052222222     0.771856666667     0          
O        O      0.245851111111     0.289592222222     0.767306666667     0          
O        O      0.232581111111     0.003802222222     0.792506666667     0          
O        O      0.299924444444     0.033408888889     0.529026666667     0          
O        O      0.247004444444     0.290168888889     0.531996666667     0          
O        O      0.241727777778     0.333332222222     0.499996666667     0          
O        O      0.045311111111     0.189322222222     0.695626666667     0          
O        O      0.326624444444     0.210825555556     0.707356666667     0          
O        O      0.019931111111     0.222222222222     0.666666666667     0          
O        O      0.067724444444     0.265608888889     0.698816666667     0          
O        O      0.319611111111     0.220835555556     0.583946666667     0          
O        O      0.299544444444     0.265755555556     0.607026666667     0          
O        O      0.041554444444     0.291778888889     0.597146666667     0          
O        O      0.301281111111     0.269228888889     0.771856666667     0          
O        O      0.043741111111     0.289592222222     0.767306666667     0          
O        O      0.329531111111     0.228778888889     0.792506666667     0          
O        O      0.299924444444     0.266515555556     0.529026666667     0          
O        O      0.043164444444     0.290168888889     0.531996666667     0          
O        O      0.000001111111     0.241728888889     0.499996666667     0          
O        O      0.144011111111     0.189322222222     0.695626666667     0          
O        O      0.122507777778     0.115798888889     0.707356666667     0          
O        O      0.111111111111     0.131042222222     0.666666666667     0          
O        O      0.067724444444     0.135448888889     0.698816666667     0          
O        O      0.112497777778     0.098775555556     0.583946666667     0          
O        O      0.067577777778     0.033788888889     0.607026666667     0          
O        O      0.041554444444     0.083108888889     0.597146666667     0          
O        O      0.064104444444     0.032052222222     0.771856666667     0          
O        O      0.043741111111     0.087482222222     0.767306666667     0          
O        O      0.104554444444     0.100752222222     0.792506666667     0          
O        O      0.066817777778     0.033408888889     0.529026666667     0          
O        O      0.043164444444     0.086328888889     0.531996666667     0          
O        O      0.176911111111     0.255122222222     0.637706666667     0          
O        O      0.228931111111     0.328645555556     0.625976666667     0          
O        O      0.154497777778     0.308995555556     0.634516666667     0          
O        O      0.235944444444     0.012335555556     0.749386666667     0          
O        O      0.256011111111     0.077322222222     0.726306666667     0          
O        O      0.180667777778     0.028002222222     0.736186666667     0          
O        O      0.254274444444     0.079058888889     0.561476666667     0          
O        O      0.178481111111     0.023628888889     0.566026666667     0          
O        O      0.226024444444     0.010358888889     0.540826666667     0          
O        O      0.255631111111     0.077702222222     0.804306666667     0          
O        O      0.179057777778     0.024782222222     0.801336666667     0          
O        O      0.078211111111     0.255122222222     0.637706666667     0          
O        O      0.004687777778     0.233618888889     0.625976666667     0          
O        O      0.024337777778     0.178835555556     0.634516666667     0          
O        O      0.320997777778     0.223608888889     0.749386666667     0          
O        O      0.256011111111     0.178688888889     0.726306666667     0          
O        O      0.305331111111     0.152665555556     0.736186666667     0          
O        O      0.254274444444     0.175215555556     0.561476666667     0          
O        O      0.309704444444     0.154852222222     0.566026666667     0          
O        O      0.322974444444     0.215665555556     0.540826666667     0          
O        O      0.255631111111     0.177928888889     0.804306666667     0          
O        O      0.308551111111     0.154275555556     0.801336666667     0          
O        O      0.078211111111     0.156422222222     0.637706666667     0          
O        O      0.099714444444     0.104402222222     0.625976666667     0          
O        O      0.154497777778     0.178835555556     0.634516666667     0          
O        O      0.109724444444     0.097388888889     0.749386666667     0          
O        O      0.154644444444     0.077322222222     0.726306666667     0          
O        O      0.180667777778     0.152665555556     0.736186666667     0          
O        O      0.158117777778     0.079058888889     0.561476666667     0          
O        O      0.178481111111     0.154852222222     0.566026666667     0          
O        O      0.117667777778     0.107308888889     0.540826666667     0          
O        O      0.155404444444     0.077702222222     0.804306666667     0          
O        O      0.179057777778     0.154275555556     0.801336666667     0          
O        O      0.004687777778     0.104402222222     0.625976666667     0          
O        O      0.019931111111     0.131042222222     0.666666666667     0          
O        O      0.320997777778     0.097388888889     0.749386666667     0          
O        O      0.322974444444     0.107308888889     0.540826666667     0          
O        O      0.228931111111     0.233618888889     0.625976666667     0          
O        O      0.202291111111     0.222222222222     0.666666666667     0          
O        O      0.235944444444     0.223608888889     0.749386666667     0          
O        O      0.226024444444     0.215665555556     0.540826666667     0          
O        O      0.099714444444     0.328645555556     0.625976666667     0          
O        O      0.111111111111     0.313402222222     0.666666666667     0          
O        O      0.109724444444     0.012335555556     0.749386666667     0          
O        O      0.117667777778     0.010358888889     0.540826666667     0          
O        O      0.326624444444     0.115798888889     0.707356666667     0          
O        O      0.319611111111     0.098775555556     0.583946666667     0          
O        O      0.329531111111     0.100752222222     0.792506666667     0          
O        O      0.000001111111     0.091605555556     0.499996666667     0          
O        O      0.217534444444     0.210825555556     0.707356666667     0          
O        O      0.234557777778     0.220835555556     0.583946666667     0          
O        O      0.232581111111     0.228778888889     0.792506666667     0          
O        O      0.122507777778     0.006708888889     0.707356666667     0          
O        O      0.112497777778     0.013722222222     0.583946666667     0          
O        O      0.104554444444     0.003802222222     0.792506666667     0          
O        O      0.091604444444     0.333332222222     0.499996666667     0          
O        O      0.032900000000     0.399133333333     0.028960000000     0          
O        O      0.106423333333     0.451153333333     0.040690000000     0          
O        O      0.091180000000     0.424513333333     0.000000000000     0          
O        O      0.086773333333     0.376720000000     0.032150000000     0          
O        O      0.123446666667     0.458166666667     0.917280000000     0          
O        O      0.188433333333     0.478233333333     0.940360000000     0          
O        O      0.139113333333     0.402890000000     0.930480000000     0          
O        O      0.190170000000     0.476496666667     0.105190000000     0          
O        O      0.134740000000     0.400703333333     0.100640000000     0          
O        O      0.121470000000     0.448246666667     0.125840000000     0          
O        O      0.188813333333     0.477853333333     0.862360000000     0          
O        O      0.135893333333     0.401280000000     0.865330000000     0          
O        O      0.130616666667     0.444443333333     0.833330000000     0          
O        O      0.267533333333     0.633766666667     0.028960000000     0          
O        O      0.215513333333     0.655270000000     0.040690000000     0          
O        O      0.242153333333     0.333333333333     0.000000000000     0          
O        O      0.289946666667     0.376720000000     0.032150000000     0          
O        O      0.208500000000     0.665280000000     0.917280000000     0          
O        O      0.188433333333     0.376866666667     0.940360000000     0          
O        O      0.263776666667     0.402890000000     0.930480000000     0          
O        O      0.190170000000     0.380340000000     0.105190000000     0          
O        O      0.265963333333     0.400703333333     0.100640000000     0          
O        O      0.218420000000     0.339890000000     0.125840000000     0          
O        O      0.188813333333     0.377626666667     0.862360000000     0          
O        O      0.265386666667     0.401280000000     0.865330000000     0          
O        O      0.222223333333     0.352840000000     0.833330000000     0          
O        O      0.032900000000     0.633766666667     0.028960000000     0          
O        O      0.011396666667     0.560243333333     0.040690000000     0          
O        O      0.000000000000     0.575486666667     0.000000000000     0          
O        O      0.289946666667     0.579893333333     0.032150000000     0          
O        O      0.001386666667     0.543220000000     0.917280000000     0          
O        O      0.289800000000     0.478233333333     0.940360000000     0          
O        O      0.263776666667     0.527553333333     0.930480000000     0          
O        O      0.286326666667     0.476496666667     0.105190000000     0          
O        O      0.265963333333     0.531926666667     0.100640000000     0          
O        O      0.326776666667     0.545196666667     0.125840000000     0          
O        O      0.289040000000     0.477853333333     0.862360000000     0          
O        O      0.265386666667     0.530773333333     0.865330000000     0          
O        O      0.313826666667     0.536050000000     0.833330000000     0          
O        O      0.065800000000     0.366233333333     0.971040000000     0          
O        O      0.117820000000     0.439756666667     0.959310000000     0          
O        O      0.043386666667     0.420106666667     0.967850000000     0          
O        O      0.124833333333     0.456780000000     0.082720000000     0          
O        O      0.144900000000     0.521766666667     0.059640000000     0          
O        O      0.069556666667     0.472446666667     0.069520000000     0          
O        O      0.143163333333     0.523503333333     0.894810000000     0          
O        O      0.067370000000     0.468073333333     0.899360000000     0          
O        O      0.114913333333     0.454803333333     0.874160000000     0          
O        O      0.144520000000     0.522146666667     0.137640000000     0          
O        O      0.067946666667     0.469226666667     0.134670000000     0          
O        O      0.111110000000     0.463950000000     0.166670000000     0          
O        O      0.300433333333     0.366233333333     0.971040000000     0          
O        O      0.226910000000     0.344730000000     0.959310000000     0          
O        O      0.246560000000     0.623280000000     0.967850000000     0          
O        O      0.209886666667     0.334720000000     0.082720000000     0          
O        O      0.144900000000     0.623133333333     0.059640000000     0          
O        O      0.194220000000     0.597110000000     0.069520000000     0          
O        O      0.143163333333     0.619660000000     0.894810000000     0          
O        O      0.198593333333     0.599296666667     0.899360000000     0          
O        O      0.211863333333     0.660110000000     0.874160000000     0          
O        O      0.144520000000     0.622373333333     0.137640000000     0          
O        O      0.197440000000     0.598720000000     0.134670000000     0          
O        O      0.202716666667     0.647160000000     0.166670000000     0          
O        O      0.300433333333     0.600866666667     0.971040000000     0          
O        O      0.321936666667     0.548846666667     0.959310000000     0          
O        O      0.043386666667     0.623280000000     0.967850000000     0          
O        O      0.331946666667     0.541833333333     0.082720000000     0          
O        O      0.043533333333     0.521766666667     0.059640000000     0          
O        O      0.069556666667     0.597110000000     0.069520000000     0          
O        O      0.047006666667     0.523503333333     0.894810000000     0          
O        O      0.067370000000     0.599296666667     0.899360000000     0          
O        O      0.006556666667     0.551753333333     0.874160000000     0          
O        O      0.044293333333     0.522146666667     0.137640000000     0          
O        O      0.067946666667     0.598720000000     0.134670000000     0          
O        O      0.019506666667     0.555556666667     0.166670000000     0          
O        O      0.226910000000     0.548846666667     0.959310000000     0          
O        O      0.242153333333     0.575486666667     0.000000000000     0          
O        O      0.209886666667     0.541833333333     0.082720000000     0          
O        O      0.211863333333     0.551753333333     0.874160000000     0          
O        O      0.202716666667     0.555556666667     0.166670000000     0          
O        O      0.117820000000     0.344730000000     0.959310000000     0          
O        O      0.091180000000     0.333333333333     0.000000000000     0          
O        O      0.124833333333     0.334720000000     0.082720000000     0          
O        O      0.114913333333     0.660110000000     0.874160000000     0          
O        O      0.111110000000     0.647160000000     0.166670000000     0          
O        O      0.321936666667     0.439756666667     0.959310000000     0          
O        O      0.000000000000     0.424513333333     0.000000000000     0          
O        O      0.331946666667     0.456780000000     0.082720000000     0          
O        O      0.006556666667     0.454803333333     0.874160000000     0          
O        O      0.019506666667     0.463950000000     0.166670000000     0          
O        O      0.215513333333     0.560243333333     0.040690000000     0          
O        O      0.208500000000     0.543220000000     0.917280000000     0          
O        O      0.218420000000     0.545196666667     0.125840000000     0          
O        O      0.222223333333     0.536050000000     0.833330000000     0          
O        O      0.106423333333     0.655270000000     0.040690000000     0          
O        O      0.123446666667     0.665280000000     0.917280000000     0          
O        O      0.121470000000     0.339890000000     0.125840000000     0          
O        O      0.130616666667     0.352840000000     0.833330000000     0          
O        O      0.011396666667     0.451153333333     0.040690000000     0          
O        O      0.001386666667     0.458166666667     0.917280000000     0          
O        O      0.326776666667     0.448246666667     0.125840000000     0          
O        O      0.313826666667     0.444443333333     0.833330000000     0          
O        O      0.255122222222     0.510244444444     0.362293333333     0          
O        O      0.328645555556     0.562264444444     0.374023333333     0          
O        O      0.313402222222     0.535624444444     0.333333333333     0          
O        O      0.308995555556     0.487831111111     0.365483333333     0          
O        O      0.012335555556     0.569277777778     0.250613333333     0          
O        O      0.077322222222     0.589344444444     0.273693333333     0          
O        O      0.028002222222     0.514001111111     0.263813333333     0          
O        O      0.079058888889     0.587607777778     0.438523333333     0          
O        O      0.023628888889     0.511814444444     0.433973333333     0          
O        O      0.010358888889     0.559357777778     0.459173333333     0          
O        O      0.077702222222     0.588964444444     0.195693333333     0          
O        O      0.024782222222     0.512391111111     0.198663333333     0          
O        O      0.156422222222     0.411544444444     0.362293333333     0          
O        O      0.104402222222     0.433047777778     0.374023333333     0          
O        O      0.131042222222     0.444444444444     0.333333333333     0          
O        O      0.178835555556     0.487831111111     0.365483333333     0          
O        O      0.097388888889     0.443057777778     0.250613333333     0          
O        O      0.077322222222     0.487977777778     0.273693333333     0          
O        O      0.152665555556     0.514001111111     0.263813333333     0          
O        O      0.079058888889     0.491451111111     0.438523333333     0          
O        O      0.154852222222     0.511814444444     0.433973333333     0          
O        O      0.107308888889     0.451001111111     0.459173333333     0          
O        O      0.077702222222     0.488737777778     0.195693333333     0          
O        O      0.154275555556     0.512391111111     0.198663333333     0          
O        O      0.255122222222     0.411544444444     0.362293333333     0          
O        O      0.233618888889     0.338021111111     0.374023333333     0          
O        O      0.222222222222     0.353264444444     0.333333333333     0          
O        O      0.178835555556     0.357671111111     0.365483333333     0          
O        O      0.223608888889     0.654331111111     0.250613333333     0          
O        O      0.178688888889     0.589344444444     0.273693333333     0          
O        O      0.152665555556     0.638664444444     0.263813333333     0          
O        O      0.175215555556     0.587607777778     0.438523333333     0          
O        O      0.154852222222     0.643037777778     0.433973333333     0          
O        O      0.215665555556     0.656307777778     0.459173333333     0          
O        O      0.177928888889     0.588964444444     0.195693333333     0          
O        O      0.154275555556     0.641884444444     0.198663333333     0          
O        O      0.288022222222     0.477344444444     0.304373333333     0          
O        O      0.006708888889     0.550867777778     0.292643333333     0          
O        O      0.265608888889     0.531217777778     0.301183333333     0          
O        O      0.013722222222     0.567891111111     0.416053333333     0          
O        O      0.033788888889     0.632877777778     0.392973333333     0          
O        O      0.291778888889     0.583557777778     0.402853333333     0          
O        O      0.032052222222     0.634614444444     0.228143333333     0          
O        O      0.289592222222     0.579184444444     0.232693333333     0          
O        O      0.003802222222     0.565914444444     0.207493333333     0          
O        O      0.033408888889     0.633257777778     0.470973333333     0          
O        O      0.290168888889     0.580337777778     0.468003333333     0          
O        O      0.333332222222     0.575061111111     0.500003333333     0          
O        O      0.189322222222     0.477344444444     0.304373333333     0          
O        O      0.115798888889     0.455841111111     0.292643333333     0          
O        O      0.135448888889     0.401057777778     0.301183333333     0          
O        O      0.098775555556     0.445831111111     0.416053333333     0          
O        O      0.033788888889     0.400911111111     0.392973333333     0          
O        O      0.083108888889     0.374887777778     0.402853333333     0          
O        O      0.032052222222     0.397437777778     0.228143333333     0          
O        O      0.087482222222     0.377074444444     0.232693333333     0          
O        O      0.100752222222     0.437887777778     0.207493333333     0          
O        O      0.033408888889     0.400151111111     0.470973333333     0          
O        O      0.086328888889     0.376497777778     0.468003333333     0          
O        O      0.091605555556     0.424937777778     0.500003333333     0          
O        O      0.189322222222     0.378644444444     0.304373333333     0          
O        O      0.210825555556     0.659957777778     0.292643333333     0          
O        O      0.265608888889     0.401057777778     0.301183333333     0          
O        O      0.220835555556     0.652944444444     0.416053333333     0          
O        O      0.265755555556     0.632877777778     0.392973333333     0          
O        O      0.291778888889     0.374887777778     0.402853333333     0          
O        O      0.269228888889     0.634614444444     0.228143333333     0          
O        O      0.289592222222     0.377074444444     0.232693333333     0          
O        O      0.228778888889     0.662864444444     0.207493333333     0          
O        O      0.266515555556     0.633257777778     0.470973333333     0          
O        O      0.290168888889     0.376497777778     0.468003333333     0          
O        O      0.115798888889     0.659957777778     0.292643333333     0          
O        O      0.131042222222     0.353264444444     0.333333333333     0          
O        O      0.098775555556     0.652944444444     0.416053333333     0          
O        O      0.100752222222     0.662864444444     0.207493333333     0          
O        O      0.006708888889     0.455841111111     0.292643333333     0          
O        O      0.313402222222     0.444444444444     0.333333333333     0          
O        O      0.013722222222     0.445831111111     0.416053333333     0          
O        O      0.003802222222     0.437887777778     0.207493333333     0          
O        O      0.333332222222     0.424937777778     0.500003333333     0          
O        O      0.210825555556     0.550867777778     0.292643333333     0          
O        O      0.222222222222     0.535624444444     0.333333333333     0          
O        O      0.220835555556     0.567891111111     0.416053333333     0          
O        O      0.228778888889     0.565914444444     0.207493333333     0          
O        O      0.241728888889     0.575061111111     0.500003333333     0          
O        O      0.104402222222     0.338021111111     0.374023333333     0          
O        O      0.097388888889     0.654331111111     0.250613333333     0          
O        O      0.107308888889     0.656307777778     0.459173333333     0          
O        O      0.328645555556     0.433047777778     0.374023333333     0          
O        O      0.012335555556     0.443057777778     0.250613333333     0          
O        O      0.010358888889     0.451001111111     0.459173333333     0          
O        O      0.233618888889     0.562264444444     0.374023333333     0          
O        O      0.223608888889     0.569277777778     0.250613333333     0          
O        O      0.215665555556     0.559357777778     0.459173333333     0          
O        O      0.144011111111     0.621355555556     0.695626666667     0          
O        O      0.217534444444     0.340042222222     0.707356666667     0          
O        O      0.202291111111     0.646735555556     0.666666666667     0          
O        O      0.197884444444     0.598942222222     0.698816666667     0          
O        O      0.234557777778     0.347055555556     0.583946666667     0          
O        O      0.299544444444     0.367122222222     0.607026666667     0          
O        O      0.250224444444     0.625112222222     0.597146666667     0          
O        O      0.301281111111     0.365385555556     0.771856666667     0          
O        O      0.245851111111     0.622925555556     0.767306666667     0          
O        O      0.232581111111     0.337135555556     0.792506666667     0          
O        O      0.299924444444     0.366742222222     0.529026666667     0          
O        O      0.247004444444     0.623502222222     0.531996666667     0          
O        O      0.241727777778     0.666665555556     0.499996666667     0          
O        O      0.045311111111     0.522655555556     0.695626666667     0          
O        O      0.326624444444     0.544158888889     0.707356666667     0          
O        O      0.019931111111     0.555555555556     0.666666666667     0          
O        O      0.067724444444     0.598942222222     0.698816666667     0          
O        O      0.319611111111     0.554168888889     0.583946666667     0          
O        O      0.299544444444     0.599088888889     0.607026666667     0          
O        O      0.041554444444     0.625112222222     0.597146666667     0          
O        O      0.301281111111     0.602562222222     0.771856666667     0          
O        O      0.043741111111     0.622925555556     0.767306666667     0          
O        O      0.329531111111     0.562112222222     0.792506666667     0          
O        O      0.299924444444     0.599848888889     0.529026666667     0          
O        O      0.043164444444     0.623502222222     0.531996666667     0          
O        O      0.000001111111     0.575062222222     0.499996666667     0          
O        O      0.144011111111     0.522655555556     0.695626666667     0          
O        O      0.122507777778     0.449132222222     0.707356666667     0          
O        O      0.111111111111     0.464375555556     0.666666666667     0          
O        O      0.067724444444     0.468782222222     0.698816666667     0          
O        O      0.112497777778     0.432108888889     0.583946666667     0          
O        O      0.067577777778     0.367122222222     0.607026666667     0          
O        O      0.041554444444     0.416442222222     0.597146666667     0          
O        O      0.064104444444     0.365385555556     0.771856666667     0          
O        O      0.043741111111     0.420815555556     0.767306666667     0          
O        O      0.104554444444     0.434085555556     0.792506666667     0          
O        O      0.066817777778     0.366742222222     0.529026666667     0          
O        O      0.043164444444     0.419662222222     0.531996666667     0          
O        O      0.176911111111     0.588455555556     0.637706666667     0          
O        O      0.228931111111     0.661978888889     0.625976666667     0          
O        O      0.154497777778     0.642328888889     0.634516666667     0          
O        O      0.235944444444     0.345668888889     0.749386666667     0          
O        O      0.256011111111     0.410655555556     0.726306666667     0          
O        O      0.180667777778     0.361335555556     0.736186666667     0          
O        O      0.254274444444     0.412392222222     0.561476666667     0          
O        O      0.178481111111     0.356962222222     0.566026666667     0          
O        O      0.226024444444     0.343692222222     0.540826666667     0          
O        O      0.255631111111     0.411035555556     0.804306666667     0          
O        O      0.179057777778     0.358115555556     0.801336666667     0          
O        O      0.078211111111     0.588455555556     0.637706666667     0          
O        O      0.004687777778     0.566952222222     0.625976666667     0          
O        O      0.024337777778     0.512168888889     0.634516666667     0          
O        O      0.320997777778     0.556942222222     0.749386666667     0          
O        O      0.256011111111     0.512022222222     0.726306666667     0          
O        O      0.305331111111     0.485998888889     0.736186666667     0          
O        O      0.254274444444     0.508548888889     0.561476666667     0          
O        O      0.309704444444     0.488185555556     0.566026666667     0          
O        O      0.322974444444     0.548998888889     0.540826666667     0          
O        O      0.255631111111     0.511262222222     0.804306666667     0          
O        O      0.308551111111     0.487608888889     0.801336666667     0          
O        O      0.078211111111     0.489755555556     0.637706666667     0          
O        O      0.099714444444     0.437735555556     0.625976666667     0          
O        O      0.154497777778     0.512168888889     0.634516666667     0          
O        O      0.109724444444     0.430722222222     0.749386666667     0          
O        O      0.154644444444     0.410655555556     0.726306666667     0          
O        O      0.180667777778     0.485998888889     0.736186666667     0          
O        O      0.158117777778     0.412392222222     0.561476666667     0          
O        O      0.178481111111     0.488185555556     0.566026666667     0          
O        O      0.117667777778     0.440642222222     0.540826666667     0          
O        O      0.155404444444     0.411035555556     0.804306666667     0          
O        O      0.179057777778     0.487608888889     0.801336666667     0          
O        O      0.004687777778     0.437735555556     0.625976666667     0          
O        O      0.019931111111     0.464375555556     0.666666666667     0          
O        O      0.320997777778     0.430722222222     0.749386666667     0          
O        O      0.322974444444     0.440642222222     0.540826666667     0          
O        O      0.228931111111     0.566952222222     0.625976666667     0          
O        O      0.202291111111     0.555555555556     0.666666666667     0          
O        O      0.235944444444     0.556942222222     0.749386666667     0          
O        O      0.226024444444     0.548998888889     0.540826666667     0          
O        O      0.099714444444     0.661978888889     0.625976666667     0          
O        O      0.111111111111     0.646735555556     0.666666666667     0          
O        O      0.109724444444     0.345668888889     0.749386666667     0          
O        O      0.117667777778     0.343692222222     0.540826666667     0          
O        O      0.326624444444     0.449132222222     0.707356666667     0          
O        O      0.319611111111     0.432108888889     0.583946666667     0          
O        O      0.329531111111     0.434085555556     0.792506666667     0          
O        O      0.000001111111     0.424938888889     0.499996666667     0          
O        O      0.217534444444     0.544158888889     0.707356666667     0          
O        O      0.234557777778     0.554168888889     0.583946666667     0          
O        O      0.232581111111     0.562112222222     0.792506666667     0          
O        O      0.122507777778     0.340042222222     0.707356666667     0          
O        O      0.112497777778     0.347055555556     0.583946666667     0          
O        O      0.104554444444     0.337135555556     0.792506666667     0          
O        O      0.091604444444     0.666665555556     0.499996666667     0          
O        O      0.032900000000     0.732466666667     0.028960000000     0          
O        O      0.106423333333     0.784486666667     0.040690000000     0          
O        O      0.091180000000     0.757846666667     0.000000000000     0          
O        O      0.086773333333     0.710053333333     0.032150000000     0          
O        O      0.123446666667     0.791500000000     0.917280000000     0          
O        O      0.188433333333     0.811566666667     0.940360000000     0          
O        O      0.139113333333     0.736223333333     0.930480000000     0          
O        O      0.190170000000     0.809830000000     0.105190000000     0          
O        O      0.134740000000     0.734036666667     0.100640000000     0          
O        O      0.121470000000     0.781580000000     0.125840000000     0          
O        O      0.188813333333     0.811186666667     0.862360000000     0          
O        O      0.135893333333     0.734613333333     0.865330000000     0          
O        O      0.130616666667     0.777776666667     0.833330000000     0          
O        O      0.267533333333     0.967100000000     0.028960000000     0          
O        O      0.215513333333     0.988603333333     0.040690000000     0          
O        O      0.242153333333     0.666666666667     0.000000000000     0          
O        O      0.289946666667     0.710053333333     0.032150000000     0          
O        O      0.208500000000     0.998613333333     0.917280000000     0          
O        O      0.188433333333     0.710200000000     0.940360000000     0          
O        O      0.263776666667     0.736223333333     0.930480000000     0          
O        O      0.190170000000     0.713673333333     0.105190000000     0          
O        O      0.265963333333     0.734036666667     0.100640000000     0          
O        O      0.218420000000     0.673223333333     0.125840000000     0          
O        O      0.188813333333     0.710960000000     0.862360000000     0          
O        O      0.265386666667     0.734613333333     0.865330000000     0          
O        O      0.222223333333     0.686173333333     0.833330000000     0          
O        O      0.032900000000     0.967100000000     0.028960000000     0          
O        O      0.011396666667     0.893576666667     0.040690000000     0          
O        O      0.000000000000     0.908820000000     0.000000000000     0          
O        O      0.289946666667     0.913226666667     0.032150000000     0          
O        O      0.001386666667     0.876553333333     0.917280000000     0          
O        O      0.289800000000     0.811566666667     0.940360000000     0          
O        O      0.263776666667     0.860886666667     0.930480000000     0          
O        O      0.286326666667     0.809830000000     0.105190000000     0          
O        O      0.265963333333     0.865260000000     0.100640000000     0          
O        O      0.326776666667     0.878530000000     0.125840000000     0          
O        O      0.289040000000     0.811186666667     0.862360000000     0          
O        O      0.265386666667     0.864106666667     0.865330000000     0          
O        O      0.313826666667     0.869383333333     0.833330000000     0          
O        O      0.065800000000     0.699566666667     0.971040000000     0          
O        O      0.117820000000     0.773090000000     0.959310000000     0          
O        O      0.043386666667     0.753440000000     0.967850000000     0          
O        O      0.124833333333     0.790113333333     0.082720000000     0          
O        O      0.144900000000     0.855100000000     0.059640000000     0          
O        O      0.069556666667     0.805780000000     0.069520000000     0          
O        O      0.143163333333     0.856836666667     0.894810000000     0          
O        O      0.067370000000     0.801406666667     0.899360000000     0          
O        O      0.114913333333     0.788136666667     0.874160000000     0          
O        O      0.144520000000     0.855480000000     0.137640000000     0          
O        O      0.067946666667     0.802560000000     0.134670000000     0          
O        O      0.111110000000     0.797283333333     0.166670000000     0          
O        O      0.300433333333     0.699566666667     0.971040000000     0          
O        O      0.226910000000     0.678063333333     0.959310000000     0          
O        O      0.246560000000     0.956613333333     0.967850000000     0          
O        O      0.209886666667     0.668053333333     0.082720000000     0          
O        O      0.144900000000     0.956466666667     0.059640000000     0          
O        O      0.194220000000     0.930443333333     0.069520000000     0          
O        O      0.143163333333     0.952993333333     0.894810000000     0          
O        O      0.198593333333     0.932630000000     0.899360000000     0          
O        O      0.211863333333     0.993443333333     0.874160000000     0          
O        O      0.144520000000     0.955706666667     0.137640000000     0          
O        O      0.197440000000     0.932053333333     0.134670000000     0          
O        O      0.202716666667     0.980493333333     0.166670000000     0          
O        O      0.300433333333     0.934200000000     0.971040000000     0          
O        O      0.321936666667     0.882180000000     0.959310000000     0          
O        O      0.043386666667     0.956613333333     0.967850000000     0          
O        O      0.331946666667     0.875166666667     0.082720000000     0          
O        O      0.043533333333     0.855100000000     0.059640000000     0          
O        O      0.069556666667     0.930443333333     0.069520000000     0          
O        O      0.047006666667     0.856836666667     0.894810000000     0          
O        O      0.067370000000     0.932630000000     0.899360000000     0          
O        O      0.006556666667     0.885086666667     0.874160000000     0          
O        O      0.044293333333     0.855480000000     0.137640000000     0          
O        O      0.067946666667     0.932053333333     0.134670000000     0          
O        O      0.019506666667     0.888890000000     0.166670000000     0          
O        O      0.226910000000     0.882180000000     0.959310000000     0          
O        O      0.242153333333     0.908820000000     0.000000000000     0          
O        O      0.209886666667     0.875166666667     0.082720000000     0          
O        O      0.211863333333     0.885086666667     0.874160000000     0          
O        O      0.202716666667     0.888890000000     0.166670000000     0          
O        O      0.117820000000     0.678063333333     0.959310000000     0          
O        O      0.091180000000     0.666666666667     0.000000000000     0          
O        O      0.124833333333     0.668053333333     0.082720000000     0          
O        O      0.114913333333     0.993443333333     0.874160000000     0          
O        O      0.111110000000     0.980493333333     0.166670000000     0          
O        O      0.321936666667     0.773090000000     0.959310000000     0          
O        O      0.000000000000     0.757846666667     0.000000000000     0          
O        O      0.331946666667     0.790113333333     0.082720000000     0          
O        O      0.006556666667     0.788136666667     0.874160000000     0          
O        O      0.019506666667     0.797283333333     0.166670000000     0          
O        O      0.215513333333     0.893576666667     0.040690000000     0          
O        O      0.208500000000     0.876553333333     0.917280000000     0          
O        O      0.218420000000     0.878530000000     0.125840000000     0          
O        O      0.222223333333     0.869383333333     0.833330000000     0          
O        O      0.106423333333     0.988603333333     0.040690000000     0          
O        O      0.123446666667     0.998613333333     0.917280000000     0          
O        O      0.121470000000     0.673223333333     0.125840000000     0          
O        O      0.130616666667     0.686173333333     0.833330000000     0          
O        O      0.011396666667     0.784486666667     0.040690000000     0          
O        O      0.001386666667     0.791500000000     0.917280000000     0          
O        O      0.326776666667     0.781580000000     0.125840000000     0          
O        O      0.313826666667     0.777776666667     0.833330000000     0          
O        O      0.255122222222     0.843577777778     0.362293333333     0          
O        O      0.328645555556     0.895597777778     0.374023333333     0          
O        O      0.313402222222     0.868957777778     0.333333333333     0          
O        O      0.308995555556     0.821164444444     0.365483333333     0          
O        O      0.012335555556     0.902611111111     0.250613333333     0          
O        O      0.077322222222     0.922677777778     0.273693333333     0          
O        O      0.028002222222     0.847334444444     0.263813333333     0          
O        O      0.079058888889     0.920941111111     0.438523333333     0          
O        O      0.023628888889     0.845147777778     0.433973333333     0          
O        O      0.010358888889     0.892691111111     0.459173333333     0          
O        O      0.077702222222     0.922297777778     0.195693333333     0          
O        O      0.024782222222     0.845724444444     0.198663333333     0          
O        O      0.156422222222     0.744877777778     0.362293333333     0          
O        O      0.104402222222     0.766381111111     0.374023333333     0          
O        O      0.131042222222     0.777777777778     0.333333333333     0          
O        O      0.178835555556     0.821164444444     0.365483333333     0          
O        O      0.097388888889     0.776391111111     0.250613333333     0          
O        O      0.077322222222     0.821311111111     0.273693333333     0          
O        O      0.152665555556     0.847334444444     0.263813333333     0          
O        O      0.079058888889     0.824784444444     0.438523333333     0          
O        O      0.154852222222     0.845147777778     0.433973333333     0          
O        O      0.107308888889     0.784334444444     0.459173333333     0          
O        O      0.077702222222     0.822071111111     0.195693333333     0          
O        O      0.154275555556     0.845724444444     0.198663333333     0          
O        O      0.255122222222     0.744877777778     0.362293333333     0          
O        O      0.233618888889     0.671354444444     0.374023333333     0          
O        O      0.222222222222     0.686597777778     0.333333333333     0          
O        O      0.178835555556     0.691004444444     0.365483333333     0          
O        O      0.223608888889     0.987664444444     0.250613333333     0          
O        O      0.178688888889     0.922677777778     0.273693333333     0          
O        O      0.152665555556     0.971997777778     0.263813333333     0          
O        O      0.175215555556     0.920941111111     0.438523333333     0          
O        O      0.154852222222     0.976371111111     0.433973333333     0          
O        O      0.215665555556     0.989641111111     0.459173333333     0          
O        O      0.177928888889     0.922297777778     0.195693333333     0          
O        O      0.154275555556     0.975217777778     0.198663333333     0          
O        O      0.288022222222     0.810677777778     0.304373333333     0          
O        O      0.006708888889     0.884201111111     0.292643333333     0          
O        O      0.265608888889     0.864551111111     0.301183333333     0          
O        O      0.013722222222     0.901224444444     0.416053333333     0          
O        O      0.033788888889     0.966211111111     0.392973333333     0          
O        O      0.291778888889     0.916891111111     0.402853333333     0          
O        O      0.032052222222     0.967947777778     0.228143333333     0          
O        O      0.289592222222     0.912517777778     0.232693333333     0          
O        O      0.003802222222     0.899247777778     0.207493333333     0          
O        O      0.033408888889     0.966591111111     0.470973333333     0          
O        O      0.290168888889     0.913671111111     0.468003333333     0          
O        O      0.333332222222     0.908394444444     0.500003333333     0          
O        O      0.189322222222     0.810677777778     0.304373333333     0          
O        O      0.115798888889     0.789174444444     0.292643333333     0          
O        O      0.135448888889     0.734391111111     0.301183333333     0          
O        O      0.098775555556     0.779164444444     0.416053333333     0          
O        O      0.033788888889     0.734244444444     0.392973333333     0          
O        O      0.083108888889     0.708221111111     0.402853333333     0          
O        O      0.032052222222     0.730771111111     0.228143333333     0          
O        O      0.087482222222     0.710407777778     0.232693333333     0          
O        O      0.100752222222     0.771221111111     0.207493333333     0          
O        O      0.033408888889     0.733484444444     0.470973333333     0          
O        O      0.086328888889     0.709831111111     0.468003333333     0          
O        O      0.091605555556     0.758271111111     0.500003333333     0          
O        O      0.189322222222     0.711977777778     0.304373333333     0          
O        O      0.210825555556     0.993291111111     0.292643333333     0          
O        O      0.265608888889     0.734391111111     0.301183333333     0          
O        O      0.220835555556     0.986277777778     0.416053333333     0          
O        O      0.265755555556     0.966211111111     0.392973333333     0          
O        O      0.291778888889     0.708221111111     0.402853333333     0          
O        O      0.269228888889     0.967947777778     0.228143333333     0          
O        O      0.289592222222     0.710407777778     0.232693333333     0          
O        O      0.228778888889     0.996197777778     0.207493333333     0          
O        O      0.266515555556     0.966591111111     0.470973333333     0          
O        O      0.290168888889     0.709831111111     0.468003333333     0          
O        O      0.115798888889     0.993291111111     0.292643333333     0          
O        O      0.131042222222     0.686597777778     0.333333333333     0          
O        O      0.098775555556     0.986277777778     0.416053333333     0          
O        O      0.100752222222     0.996197777778     0.207493333333     0          
O        O      0.006708888889     0.789174444444     0.292643333333     0          
O        O      0.313402222222     0.777777777778     0.333333333333     0          
O        O      0.013722222222     0.779164444444     0.416053333333     0          
O        O      0.003802222222     0.771221111111     0.207493333333     0          
O        O      0.333332222222     0.758271111111     0.500003333333     0          
O        O      0.210825555556     0.884201111111     0.292643333333     0          
O        O      0.222222222222     0.868957777778     0.333333333333     0          
O        O      0.220835555556     0.901224444444     0.416053333333     0          
O        O      0.228778888889     0.899247777778     0.207493333333     0          
O        O      0.241728888889     0.908394444444     0.500003333333     0          
O        O      0.104402222222     0.671354444444     0.374023333333     0          
O        O      0.097388888889     0.987664444444     0.250613333333     0          
O        O      0.107308888889     0.989641111111     0.459173333333     0          
O        O      0.328645555556     0.766381111111     0.374023333333     0          
O        O      0.012335555556     0.776391111111     0.250613333333     0          
O        O      0.010358888889     0.784334444444     0.459173333333     0          
O        O      0.233618888889     0.895597777778     0.374023333333     0          
O        O      0.223608888889     0.902611111111     0.250613333333     0          
O        O      0.215665555556     0.892691111111     0.459173333333     0          
O        O      0.144011111111     0.954688888889     0.695626666667     0          
O        O      0.217534444444     0.673375555556     0.707356666667     0          
O        O      0.202291111111     0.980068888889     0.666666666667     0          
O        O      0.197884444444     0.932275555556     0.698816666667     0          
O        O      0.234557777778     0.680388888889     0.583946666667     0          
O        O      0.299544444444     0.700455555556     0.607026666667     0          
O        O      0.250224444444     0.958445555556     0.597146666667     0          
O        O      0.301281111111     0.698718888889     0.771856666667     0          
O        O      0.245851111111     0.956258888889     0.767306666667     0          
O        O      0.232581111111     0.670468888889     0.792506666667     0          
O        O      0.299924444444     0.700075555556     0.529026666667     0          
O        O      0.247004444444     0.956835555556     0.531996666667     0          
O        O      0.045311111111     0.855988888889     0.695626666667     0          
O        O      0.326624444444     0.877492222222     0.707356666667     0          
O        O      0.019931111111     0.888888888889     0.666666666667     0          
O        O      0.067724444444     0.932275555556     0.698816666667     0          
O        O      0.319611111111     0.887502222222     0.583946666667     0          
O        O      0.299544444444     0.932422222222     0.607026666667     0          
O        O      0.041554444444     0.958445555556     0.597146666667     0          
O        O      0.301281111111     0.935895555556     0.771856666667     0          
O        O      0.043741111111     0.956258888889     0.767306666667     0          
O        O      0.329531111111     0.895445555556     0.792506666667     0          
O        O      0.299924444444     0.933182222222     0.529026666667     0          
O        O      0.043164444444     0.956835555556     0.531996666667     0          
O        O      0.000001111111     0.908395555556     0.499996666667     0          
O        O      0.144011111111     0.855988888889     0.695626666667     0          
O        O      0.122507777778     0.782465555556     0.707356666667     0          
O        O      0.111111111111     0.797708888889     0.666666666667     0          
O        O      0.067724444444     0.802115555556     0.698816666667     0          
O        O      0.112497777778     0.765442222222     0.583946666667     0          
O        O      0.067577777778     0.700455555556     0.607026666667     0          
O        O      0.041554444444     0.749775555556     0.597146666667     0          
O        O      0.064104444444     0.698718888889     0.771856666667     0          
O        O      0.043741111111     0.754148888889     0.767306666667     0          
O        O      0.104554444444     0.767418888889     0.792506666667     0          
O        O      0.066817777778     0.700075555556     0.529026666667     0          
O        O      0.043164444444     0.752995555556     0.531996666667     0          
O        O      0.176911111111     0.921788888889     0.637706666667     0          
O        O      0.228931111111     0.995312222222     0.625976666667     0          
O        O      0.154497777778     0.975662222222     0.634516666667     0          
O        O      0.235944444444     0.679002222222     0.749386666667     0          
O        O      0.256011111111     0.743988888889     0.726306666667     0          
O        O      0.180667777778     0.694668888889     0.736186666667     0          
O        O      0.254274444444     0.745725555556     0.561476666667     0          
O        O      0.178481111111     0.690295555556     0.566026666667     0          
O        O      0.226024444444     0.677025555556     0.540826666667     0          
O        O      0.255631111111     0.744368888889     0.804306666667     0          
O        O      0.179057777778     0.691448888889     0.801336666667     0          
O        O      0.078211111111     0.921788888889     0.637706666667     0          
O        O      0.004687777778     0.900285555556     0.625976666667     0          
O        O      0.024337777778     0.845502222222     0.634516666667     0          
O        O      0.320997777778     0.890275555556     0.749386666667     0          
O        O      0.256011111111     0.845355555556     0.726306666667     0          
O        O      0.305331111111     0.819332222222     0.736186666667     0          
O        O      0.254274444444     0.841882222222     0.561476666667     0          
O        O      0.309704444444     0.821518888889     0.566026666667     0          
O        O      0.322974444444     0.882332222222     0.540826666667     0          
O        O      0.255631111111     0.844595555556     0.804306666667     0          
O        O      0.308551111111     0.820942222222     0.801336666667     0          
O        O      0.078211111111     0.823088888889     0.637706666667     0          
O        O      0.099714444444     0.771068888889     0.625976666667     0          
O        O      0.154497777778     0.845502222222     0.634516666667     0          
O        O      0.109724444444     0.764055555556     0.749386666667     0          
O        O      0.154644444444     0.743988888889     0.726306666667     0          
O        O      0.180667777778     0.819332222222     0.736186666667     0          
O        O      0.158117777778     0.745725555556     0.561476666667     0          
O        O      0.178481111111     0.821518888889     0.566026666667     0          
O        O      0.117667777778     0.773975555556     0.540826666667     0          
O        O      0.155404444444     0.744368888889     0.804306666667     0          
O        O      0.179057777778     0.820942222222     0.801336666667     0          
O        O      0.004687777778     0.771068888889     0.625976666667     0          
O        O      0.019931111111     0.797708888889     0.666666666667     0          
O        O      0.320997777778     0.764055555556     0.749386666667     0          
O        O      0.322974444444     0.773975555556     0.540826666667     0          
O        O      0.228931111111     0.900285555556     0.625976666667     0          
O        O      0.202291111111     0.888888888889     0.666666666667     0          
O        O      0.235944444444     0.890275555556     0.749386666667     0          
O        O      0.226024444444     0.882332222222     0.540826666667     0          
O        O      0.099714444444     0.995312222222     0.625976666667     0          
O        O      0.111111111111     0.980068888889     0.666666666667     0          
O        O      0.109724444444     0.679002222222     0.749386666667     0          
O        O      0.117667777778     0.677025555556     0.540826666667     0          
O        O      0.326624444444     0.782465555556     0.707356666667     0          
O        O      0.319611111111     0.765442222222     0.583946666667     0          
O        O      0.329531111111     0.767418888889     0.792506666667     0          
O        O      0.000001111111     0.758272222222     0.499996666667     0          
O        O      0.217534444444     0.877492222222     0.707356666667     0          
O        O      0.234557777778     0.887502222222     0.583946666667     0          
O        O      0.232581111111     0.895445555556     0.792506666667     0          
O        O      0.122507777778     0.673375555556     0.707356666667     0          
O        O      0.112497777778     0.680388888889     0.583946666667     0          
O        O      0.104554444444     0.670468888889     0.792506666667     0          
O        O      0.366233333333     0.065800000000     0.028960000000     0          
O        O      0.439756666667     0.117820000000     0.040690000000     0          
O        O      0.424513333333     0.091180000000     0.000000000000     0          
O        O      0.420106666667     0.043386666667     0.032150000000     0          
O        O      0.456780000000     0.124833333333     0.917280000000     0          
O        O      0.521766666667     0.144900000000     0.940360000000     0          
O        O      0.472446666667     0.069556666667     0.930480000000     0          
O        O      0.523503333333     0.143163333333     0.105190000000     0          
O        O      0.468073333333     0.067370000000     0.100640000000     0          
O        O      0.454803333333     0.114913333333     0.125840000000     0          
O        O      0.522146666667     0.144520000000     0.862360000000     0          
O        O      0.469226666667     0.067946666667     0.865330000000     0          
O        O      0.463950000000     0.111110000000     0.833330000000     0          
O        O      0.600866666667     0.300433333333     0.028960000000     0          
O        O      0.548846666667     0.321936666667     0.040690000000     0          
O        O      0.575486666667     0.000000000000     0.000000000000     0          
O        O      0.623280000000     0.043386666667     0.032150000000     0          
O        O      0.541833333333     0.331946666667     0.917280000000     0          
O        O      0.521766666667     0.043533333333     0.940360000000     0          
O        O      0.597110000000     0.069556666667     0.930480000000     0          
O        O      0.523503333333     0.047006666667     0.105190000000     0          
O        O      0.599296666667     0.067370000000     0.100640000000     0          
O        O      0.551753333333     0.006556666667     0.125840000000     0          
O        O      0.522146666667     0.044293333333     0.862360000000     0          
O        O      0.598720000000     0.067946666667     0.865330000000     0          
O        O      0.555556666667     0.019506666667     0.833330000000     0          
O        O      0.366233333333     0.300433333333     0.028960000000     0          
O        O      0.344730000000     0.226910000000     0.040690000000     0          
O        O      0.333333333333     0.242153333333     0.000000000000     0          
O        O      0.623280000000     0.246560000000     0.032150000000     0          
O        O      0.334720000000     0.209886666667     0.917280000000     0          
O        O      0.623133333333     0.144900000000     0.940360000000     0          
O        O      0.597110000000     0.194220000000     0.930480000000     0          
O        O      0.619660000000     0.143163333333     0.105190000000     0          
O        O      0.599296666667     0.198593333333     0.100640000000     0          
O        O      0.660110000000     0.211863333333     0.125840000000     0          
O        O      0.622373333333     0.144520000000     0.862360000000     0          
O        O      0.598720000000     0.197440000000     0.865330000000     0          
O        O      0.647160000000     0.202716666667     0.833330000000     0          
O        O      0.399133333333     0.032900000000     0.971040000000     0          
O        O      0.451153333333     0.106423333333     0.959310000000     0          
O        O      0.376720000000     0.086773333333     0.967850000000     0          
O        O      0.458166666667     0.123446666667     0.082720000000     0          
O        O      0.478233333333     0.188433333333     0.059640000000     0          
O        O      0.402890000000     0.139113333333     0.069520000000     0          
O        O      0.476496666667     0.190170000000     0.894810000000     0          
O        O      0.400703333333     0.134740000000     0.899360000000     0          
O        O      0.448246666667     0.121470000000     0.874160000000     0          
O        O      0.477853333333     0.188813333333     0.137640000000     0          
O        O      0.401280000000     0.135893333333     0.134670000000     0          
O        O      0.444443333333     0.130616666667     0.166670000000     0          
O        O      0.633766666667     0.032900000000     0.971040000000     0          
O        O      0.560243333333     0.011396666667     0.959310000000     0          
O        O      0.579893333333     0.289946666667     0.967850000000     0          
O        O      0.543220000000     0.001386666667     0.082720000000     0          
O        O      0.478233333333     0.289800000000     0.059640000000     0          
O        O      0.527553333333     0.263776666667     0.069520000000     0          
O        O      0.476496666667     0.286326666667     0.894810000000     0          
O        O      0.531926666667     0.265963333333     0.899360000000     0          
O        O      0.545196666667     0.326776666667     0.874160000000     0          
O        O      0.477853333333     0.289040000000     0.137640000000     0          
O        O      0.530773333333     0.265386666667     0.134670000000     0          
O        O      0.536050000000     0.313826666667     0.166670000000     0          
O        O      0.633766666667     0.267533333333     0.971040000000     0          
O        O      0.655270000000     0.215513333333     0.959310000000     0          
O        O      0.376720000000     0.289946666667     0.967850000000     0          
O        O      0.665280000000     0.208500000000     0.082720000000     0          
O        O      0.376866666667     0.188433333333     0.059640000000     0          
O        O      0.402890000000     0.263776666667     0.069520000000     0          
O        O      0.380340000000     0.190170000000     0.894810000000     0          
O        O      0.400703333333     0.265963333333     0.899360000000     0          
O        O      0.339890000000     0.218420000000     0.874160000000     0          
O        O      0.377626666667     0.188813333333     0.137640000000     0          
O        O      0.401280000000     0.265386666667     0.134670000000     0          
O        O      0.352840000000     0.222223333333     0.166670000000     0          
O        O      0.560243333333     0.215513333333     0.959310000000     0          
O        O      0.575486666667     0.242153333333     0.000000000000     0          
O        O      0.543220000000     0.208500000000     0.082720000000     0          
O        O      0.545196666667     0.218420000000     0.874160000000     0          
O        O      0.536050000000     0.222223333333     0.166670000000     0          
O        O      0.451153333333     0.011396666667     0.959310000000     0          
O        O      0.424513333333     0.000000000000     0.000000000000     0          
O        O      0.458166666667     0.001386666667     0.082720000000     0          
O        O      0.448246666667     0.326776666667     0.874160000000     0          
O        O      0.444443333333     0.313826666667     0.166670000000     0          
O        O      0.655270000000     0.106423333333     0.959310000000     0          
O        O      0.333333333333     0.091180000000     0.000000000000     0          
O        O      0.665280000000     0.123446666667     0.082720000000     0          
O        O      0.339890000000     0.121470000000     0.874160000000     0          
O        O      0.352840000000     0.130616666667     0.166670000000     0          
O        O      0.548846666667     0.226910000000     0.040690000000     0          
O        O      0.541833333333     0.209886666667     0.917280000000     0          
O        O      0.551753333333     0.211863333333     0.125840000000     0          
O        O      0.555556666667     0.202716666667     0.833330000000     0          
O        O      0.439756666667     0.321936666667     0.040690000000     0          
O        O      0.456780000000     0.331946666667     0.917280000000     0          
O        O      0.454803333333     0.006556666667     0.125840000000     0          
O        O      0.463950000000     0.019506666667     0.833330000000     0          
O        O      0.344730000000     0.117820000000     0.040690000000     0          
O        O      0.334720000000     0.124833333333     0.917280000000     0          
O        O      0.660110000000     0.114913333333     0.125840000000     0          
O        O      0.647160000000     0.111110000000     0.833330000000     0          
O        O      0.588455555556     0.176911111111     0.362293333333     0          
O        O      0.661978888889     0.228931111111     0.374023333333     0          
O        O      0.646735555556     0.202291111111     0.333333333333     0          
O        O      0.642328888889     0.154497777778     0.365483333333     0          
O        O      0.345668888889     0.235944444444     0.250613333333     0          
O        O      0.410655555556     0.256011111111     0.273693333333     0          
O        O      0.361335555556     0.180667777778     0.263813333333     0          
O        O      0.412392222222     0.254274444444     0.438523333333     0          
O        O      0.356962222222     0.178481111111     0.433973333333     0          
O        O      0.343692222222     0.226024444444     0.459173333333     0          
O        O      0.411035555556     0.255631111111     0.195693333333     0          
O        O      0.358115555556     0.179057777778     0.198663333333     0          
O        O      0.489755555556     0.078211111111     0.362293333333     0          
O        O      0.437735555556     0.099714444444     0.374023333333     0          
O        O      0.464375555556     0.111111111111     0.333333333333     0          
O        O      0.512168888889     0.154497777778     0.365483333333     0          
O        O      0.430722222222     0.109724444444     0.250613333333     0          
O        O      0.410655555556     0.154644444444     0.273693333333     0          
O        O      0.485998888889     0.180667777778     0.263813333333     0          
O        O      0.412392222222     0.158117777778     0.438523333333     0          
O        O      0.488185555556     0.178481111111     0.433973333333     0          
O        O      0.440642222222     0.117667777778     0.459173333333     0          
O        O      0.411035555556     0.155404444444     0.195693333333     0          
O        O      0.487608888889     0.179057777778     0.198663333333     0          
O        O      0.588455555556     0.078211111111     0.362293333333     0          
O        O      0.566952222222     0.004687777778     0.374023333333     0          
O        O      0.555555555556     0.019931111111     0.333333333333     0          
O        O      0.512168888889     0.024337777778     0.365483333333     0          
O        O      0.556942222222     0.320997777778     0.250613333333     0          
O        O      0.512022222222     0.256011111111     0.273693333333     0          
O        O      0.485998888889     0.305331111111     0.263813333333     0          
O        O      0.508548888889     0.254274444444     0.438523333333     0          
O        O      0.488185555556     0.309704444444     0.433973333333     0          
O        O      0.548998888889     0.322974444444     0.459173333333     0          
O        O      0.511262222222     0.255631111111     0.195693333333     0          
O        O      0.487608888889     0.308551111111     0.198663333333     0          
O        O      0.621355555556     0.144011111111     0.304373333333     0          
O        O      0.340042222222     0.217534444444     0.292643333333     0          
O        O      0.598942222222     0.197884444444     0.301183333333     0          
O        O      0.347055555556     0.234557777778     0.416053333333     0          
O        O      0.367122222222     0.299544444444     0.392973333333     0          
O        O      0.625112222222     0.250224444444     0.402853333333     0          
O        O      0.365385555556     0.301281111111     0.228143333333     0          
O        O      0.622925555556     0.245851111111     0.232693333333     0          
O        O      0.337135555556     0.232581111111     0.207493333333     0          
O        O      0.366742222222     0.299924444444     0.470973333333     0          
O        O      0.623502222222     0.247004444444     0.468003333333     0          
O        O      0.666665555556     0.241727777778     0.500003333333     0          
O        O      0.522655555556     0.144011111111     0.304373333333     0          
O        O      0.449132222222     0.122507777778     0.292643333333     0          
O        O      0.468782222222     0.067724444444     0.301183333333     0          
O        O      0.432108888889     0.112497777778     0.416053333333     0          
O        O      0.367122222222     0.067577777778     0.392973333333     0          
O        O      0.416442222222     0.041554444444     0.402853333333     0          
O        O      0.365385555556     0.064104444444     0.228143333333     0          
O        O      0.420815555556     0.043741111111     0.232693333333     0          
O        O      0.434085555556     0.104554444444     0.207493333333     0          
O        O      0.366742222222     0.066817777778     0.470973333333     0          
O        O      0.419662222222     0.043164444444     0.468003333333     0          
O        O      0.424938888889     0.091604444444     0.500003333333     0          
O        O      0.522655555556     0.045311111111     0.304373333333     0          
O        O      0.544158888889     0.326624444444     0.292643333333     0          
O        O      0.598942222222     0.067724444444     0.301183333333     0          
O        O      0.554168888889     0.319611111111     0.416053333333     0          
O        O      0.599088888889     0.299544444444     0.392973333333     0          
O        O      0.625112222222     0.041554444444     0.402853333333     0          
O        O      0.602562222222     0.301281111111     0.228143333333     0          
O        O      0.622925555556     0.043741111111     0.232693333333     0          
O        O      0.562112222222     0.329531111111     0.207493333333     0          
O        O      0.599848888889     0.299924444444     0.470973333333     0          
O        O      0.623502222222     0.043164444444     0.468003333333     0          
O        O      0.575062222222     0.000001111111     0.500003333333     0          
O        O      0.449132222222     0.326624444444     0.292643333333     0          
O        O      0.464375555556     0.019931111111     0.333333333333     0          
O        O      0.432108888889     0.319611111111     0.416053333333     0          
O        O      0.434085555556     0.329531111111     0.207493333333     0          
O        O      0.424938888889     0.000001111111     0.500003333333     0          
O        O      0.340042222222     0.122507777778     0.292643333333     0          
O        O      0.646735555556     0.111111111111     0.333333333333     0          
O        O      0.347055555556     0.112497777778     0.416053333333     0          
O        O      0.337135555556     0.104554444444     0.207493333333     0          
O        O      0.666665555556     0.091604444444     0.500003333333     0          
O        O      0.544158888889     0.217534444444     0.292643333333     0          
O        O      0.555555555556     0.202291111111     0.333333333333     0          
O        O      0.554168888889     0.234557777778     0.416053333333     0          
O        O      0.562112222222     0.232581111111     0.207493333333     0          
O        O      0.575062222222     0.241727777778     0.500003333333     0          
O        O      0.437735555556     0.004687777778     0.374023333333     0          
O        O      0.430722222222     0.320997777778     0.250613333333     0          
O        O      0.440642222222     0.322974444444     0.459173333333     0          
O        O      0.661978888889     0.099714444444     0.374023333333     0          
O        O      0.345668888889     0.109724444444     0.250613333333     0          
O        O      0.343692222222     0.117667777778     0.459173333333     0          
O        O      0.566952222222     0.228931111111     0.374023333333     0          
O        O      0.556942222222     0.235944444444     0.250613333333     0          
O        O      0.548998888889     0.226024444444     0.459173333333     0          
O        O      0.477344444444     0.288022222222     0.695626666667     0          
O        O      0.550867777778     0.006708888889     0.707356666667     0          
O        O      0.535624444444     0.313402222222     0.666666666667     0          
O        O      0.531217777778     0.265608888889     0.698816666667     0          
O        O      0.567891111111     0.013722222222     0.583946666667     0          
O        O      0.632877777778     0.033788888889     0.607026666667     0          
O        O      0.583557777778     0.291778888889     0.597146666667     0          
O        O      0.634614444444     0.032052222222     0.771856666667     0          
O        O      0.579184444444     0.289592222222     0.767306666667     0          
O        O      0.565914444444     0.003802222222     0.792506666667     0          
O        O      0.633257777778     0.033408888889     0.529026666667     0          
O        O      0.580337777778     0.290168888889     0.531996666667     0          
O        O      0.575061111111     0.333332222222     0.499996666667     0          
O        O      0.378644444444     0.189322222222     0.695626666667     0          
O        O      0.659957777778     0.210825555556     0.707356666667     0          
O        O      0.353264444444     0.222222222222     0.666666666667     0          
O        O      0.401057777778     0.265608888889     0.698816666667     0          
O        O      0.652944444444     0.220835555556     0.583946666667     0          
O        O      0.632877777778     0.265755555556     0.607026666667     0          
O        O      0.374887777778     0.291778888889     0.597146666667     0          
O        O      0.634614444444     0.269228888889     0.771856666667     0          
O        O      0.377074444444     0.289592222222     0.767306666667     0          
O        O      0.662864444444     0.228778888889     0.792506666667     0          
O        O      0.633257777778     0.266515555556     0.529026666667     0          
O        O      0.376497777778     0.290168888889     0.531996666667     0          
O        O      0.477344444444     0.189322222222     0.695626666667     0          
O        O      0.455841111111     0.115798888889     0.707356666667     0          
O        O      0.444444444444     0.131042222222     0.666666666667     0          
O        O      0.401057777778     0.135448888889     0.698816666667     0          
O        O      0.445831111111     0.098775555556     0.583946666667     0          
O        O      0.400911111111     0.033788888889     0.607026666667     0          
O        O      0.374887777778     0.083108888889     0.597146666667     0          
O        O      0.397437777778     0.032052222222     0.771856666667     0          
O        O      0.377074444444     0.087482222222     0.767306666667     0          
O        O      0.437887777778     0.100752222222     0.792506666667     0          
O        O      0.400151111111     0.033408888889     0.529026666667     0          
O        O      0.376497777778     0.086328888889     0.531996666667     0          
O        O      0.510244444444     0.255122222222     0.637706666667     0          
O        O      0.562264444444     0.328645555556     0.625976666667     0          
O        O      0.487831111111     0.308995555556     0.634516666667     0          
O        O      0.569277777778     0.012335555556     0.749386666667     0          
O        O      0.589344444444     0.077322222222     0.726306666667     0          
O        O      0.514001111111     0.028002222222     0.736186666667     0          
O        O      0.587607777778     0.079058888889     0.561476666667     0          
O        O      0.511814444444     0.023628888889     0.566026666667     0          
O        O      0.559357777778     0.010358888889     0.540826666667     0          
O        O      0.588964444444     0.077702222222     0.804306666667     0          
O        O      0.512391111111     0.024782222222     0.801336666667     0          
O        O      0.411544444444     0.255122222222     0.637706666667     0          
O        O      0.338021111111     0.233618888889     0.625976666667     0          
O        O      0.357671111111     0.178835555556     0.634516666667     0          
O        O      0.654331111111     0.223608888889     0.749386666667     0          
O        O      0.589344444444     0.178688888889     0.726306666667     0          
O        O      0.638664444444     0.152665555556     0.736186666667     0          
O        O      0.587607777778     0.175215555556     0.561476666667     0          
O        O      0.643037777778     0.154852222222     0.566026666667     0          
O        O      0.656307777778     0.215665555556     0.540826666667     0          
O        O      0.588964444444     0.177928888889     0.804306666667     0          
O        O      0.641884444444     0.154275555556     0.801336666667     0          
O        O      0.411544444444     0.156422222222     0.637706666667     0          
O        O      0.433047777778     0.104402222222     0.625976666667     0          
O        O      0.487831111111     0.178835555556     0.634516666667     0          
O        O      0.443057777778     0.097388888889     0.749386666667     0          
O        O      0.487977777778     0.077322222222     0.726306666667     0          
O        O      0.514001111111     0.152665555556     0.736186666667     0          
O        O      0.491451111111     0.079058888889     0.561476666667     0          
O        O      0.511814444444     0.154852222222     0.566026666667     0          
O        O      0.451001111111     0.107308888889     0.540826666667     0          
O        O      0.488737777778     0.077702222222     0.804306666667     0          
O        O      0.512391111111     0.154275555556     0.801336666667     0          
O        O      0.338021111111     0.104402222222     0.625976666667     0          
O        O      0.353264444444     0.131042222222     0.666666666667     0          
O        O      0.654331111111     0.097388888889     0.749386666667     0          
O        O      0.656307777778     0.107308888889     0.540826666667     0          
O        O      0.562264444444     0.233618888889     0.625976666667     0          
O        O      0.535624444444     0.222222222222     0.666666666667     0          
O        O      0.569277777778     0.223608888889     0.749386666667     0          
O        O      0.559357777778     0.215665555556     0.540826666667     0          
O        O      0.433047777778     0.328645555556     0.625976666667     0          
O        O      0.444444444444     0.313402222222     0.666666666667     0          
O        O      0.443057777778     0.012335555556     0.749386666667     0          
O        O      0.451001111111     0.010358888889     0.540826666667     0          
O        O      0.659957777778     0.115798888889     0.707356666667     0          
O        O      0.652944444444     0.098775555556     0.583946666667     0          
O        O      0.662864444444     0.100752222222     0.792506666667     0          
O        O      0.550867777778     0.210825555556     0.707356666667     0          
O        O      0.567891111111     0.220835555556     0.583946666667     0          
O        O      0.565914444444     0.228778888889     0.792506666667     0          
O        O      0.455841111111     0.006708888889     0.707356666667     0          
O        O      0.445831111111     0.013722222222     0.583946666667     0          
O        O      0.437887777778     0.003802222222     0.792506666667     0          
O        O      0.424937777778     0.333332222222     0.499996666667     0          
O        O      0.366233333333     0.399133333333     0.028960000000     0          
O        O      0.439756666667     0.451153333333     0.040690000000     0          
O        O      0.424513333333     0.424513333333     0.000000000000     0          
O        O      0.420106666667     0.376720000000     0.032150000000     0          
O        O      0.456780000000     0.458166666667     0.917280000000     0          
O        O      0.521766666667     0.478233333333     0.940360000000     0          
O        O      0.472446666667     0.402890000000     0.930480000000     0          
O        O      0.523503333333     0.476496666667     0.105190000000     0          
O        O      0.468073333333     0.400703333333     0.100640000000     0          
O        O      0.454803333333     0.448246666667     0.125840000000     0          
O        O      0.522146666667     0.477853333333     0.862360000000     0          
O        O      0.469226666667     0.401280000000     0.865330000000     0          
O        O      0.463950000000     0.444443333333     0.833330000000     0          
O        O      0.600866666667     0.633766666667     0.028960000000     0          
O        O      0.548846666667     0.655270000000     0.040690000000     0          
O        O      0.575486666667     0.333333333333     0.000000000000     0          
O        O      0.623280000000     0.376720000000     0.032150000000     0          
O        O      0.541833333333     0.665280000000     0.917280000000     0          
O        O      0.521766666667     0.376866666667     0.940360000000     0          
O        O      0.597110000000     0.402890000000     0.930480000000     0          
O        O      0.523503333333     0.380340000000     0.105190000000     0          
O        O      0.599296666667     0.400703333333     0.100640000000     0          
O        O      0.551753333333     0.339890000000     0.125840000000     0          
O        O      0.522146666667     0.377626666667     0.862360000000     0          
O        O      0.598720000000     0.401280000000     0.865330000000     0          
O        O      0.555556666667     0.352840000000     0.833330000000     0          
O        O      0.366233333333     0.633766666667     0.028960000000     0          
O        O      0.344730000000     0.560243333333     0.040690000000     0          
O        O      0.333333333333     0.575486666667     0.000000000000     0          
O        O      0.623280000000     0.579893333333     0.032150000000     0          
O        O      0.334720000000     0.543220000000     0.917280000000     0          
O        O      0.623133333333     0.478233333333     0.940360000000     0          
O        O      0.597110000000     0.527553333333     0.930480000000     0          
O        O      0.619660000000     0.476496666667     0.105190000000     0          
O        O      0.599296666667     0.531926666667     0.100640000000     0          
O        O      0.660110000000     0.545196666667     0.125840000000     0          
O        O      0.622373333333     0.477853333333     0.862360000000     0          
O        O      0.598720000000     0.530773333333     0.865330000000     0          
O        O      0.647160000000     0.536050000000     0.833330000000     0          
O        O      0.399133333333     0.366233333333     0.971040000000     0          
O        O      0.451153333333     0.439756666667     0.959310000000     0          
O        O      0.376720000000     0.420106666667     0.967850000000     0          
O        O      0.458166666667     0.456780000000     0.082720000000     0          
O        O      0.478233333333     0.521766666667     0.059640000000     0          
O        O      0.402890000000     0.472446666667     0.069520000000     0          
O        O      0.476496666667     0.523503333333     0.894810000000     0          
O        O      0.400703333333     0.468073333333     0.899360000000     0          
O        O      0.448246666667     0.454803333333     0.874160000000     0          
O        O      0.477853333333     0.522146666667     0.137640000000     0          
O        O      0.401280000000     0.469226666667     0.134670000000     0          
O        O      0.444443333333     0.463950000000     0.166670000000     0          
O        O      0.633766666667     0.366233333333     0.971040000000     0          
O        O      0.560243333333     0.344730000000     0.959310000000     0          
O        O      0.579893333333     0.623280000000     0.967850000000     0          
O        O      0.543220000000     0.334720000000     0.082720000000     0          
O        O      0.478233333333     0.623133333333     0.059640000000     0          
O        O      0.527553333333     0.597110000000     0.069520000000     0          
O        O      0.476496666667     0.619660000000     0.894810000000     0          
O        O      0.531926666667     0.599296666667     0.899360000000     0          
O        O      0.545196666667     0.660110000000     0.874160000000     0          
O        O      0.477853333333     0.622373333333     0.137640000000     0          
O        O      0.530773333333     0.598720000000     0.134670000000     0          
O        O      0.536050000000     0.647160000000     0.166670000000     0          
O        O      0.633766666667     0.600866666667     0.971040000000     0          
O        O      0.655270000000     0.548846666667     0.959310000000     0          
O        O      0.376720000000     0.623280000000     0.967850000000     0          
O        O      0.665280000000     0.541833333333     0.082720000000     0          
O        O      0.376866666667     0.521766666667     0.059640000000     0          
O        O      0.402890000000     0.597110000000     0.069520000000     0          
O        O      0.380340000000     0.523503333333     0.894810000000     0          
O        O      0.400703333333     0.599296666667     0.899360000000     0          
O        O      0.339890000000     0.551753333333     0.874160000000     0          
O        O      0.377626666667     0.522146666667     0.137640000000     0          
O        O      0.401280000000     0.598720000000     0.134670000000     0          
O        O      0.352840000000     0.555556666667     0.166670000000     0          
O        O      0.560243333333     0.548846666667     0.959310000000     0          
O        O      0.575486666667     0.575486666667     0.000000000000     0          
O        O      0.543220000000     0.541833333333     0.082720000000     0          
O        O      0.545196666667     0.551753333333     0.874160000000     0          
O        O      0.536050000000     0.555556666667     0.166670000000     0          
O        O      0.451153333333     0.344730000000     0.959310000000     0          
O        O      0.424513333333     0.333333333333     0.000000000000     0          
O        O      0.458166666667     0.334720000000     0.082720000000     0          
O        O      0.448246666667     0.660110000000     0.874160000000     0          
O        O      0.444443333333     0.647160000000     0.166670000000     0          
O        O      0.655270000000     0.439756666667     0.959310000000     0          
O        O      0.333333333333     0.424513333333     0.000000000000     0          
O        O      0.665280000000     0.456780000000     0.082720000000     0          
O        O      0.339890000000     0.454803333333     0.874160000000     0          
O        O      0.352840000000     0.463950000000     0.166670000000     0          
O        O      0.548846666667     0.560243333333     0.040690000000     0          
O        O      0.541833333333     0.543220000000     0.917280000000     0          
O        O      0.551753333333     0.545196666667     0.125840000000     0          
O        O      0.555556666667     0.536050000000     0.833330000000     0          
O        O      0.439756666667     0.655270000000     0.040690000000     0          
O        O      0.456780000000     0.665280000000     0.917280000000     0          
O        O      0.454803333333     0.339890000000     0.125840000000     0          
O        O      0.463950000000     0.352840000000     0.833330000000     0          
O        O      0.344730000000     0.451153333333     0.040690000000     0          
O        O      0.334720000000     0.458166666667     0.917280000000     0          
O        O      0.660110000000     0.448246666667     0.125840000000     0          
O        O      0.647160000000     0.444443333333     0.833330000000     0          
O        O      0.588455555556     0.510244444444     0.362293333333     0          
O        O      0.661978888889     0.562264444444     0.374023333333     0          
O        O      0.646735555556     0.535624444444     0.333333333333     0          
O        O      0.642328888889     0.487831111111     0.365483333333     0          
O        O      0.345668888889     0.569277777778     0.250613333333     0          
O        O      0.410655555556     0.589344444444     0.273693333333     0          
O        O      0.361335555556     0.514001111111     0.263813333333     0          
O        O      0.412392222222     0.587607777778     0.438523333333     0          
O        O      0.356962222222     0.511814444444     0.433973333333     0          
O        O      0.343692222222     0.559357777778     0.459173333333     0          
O        O      0.411035555556     0.588964444444     0.195693333333     0          
O        O      0.358115555556     0.512391111111     0.198663333333     0          
O        O      0.489755555556     0.411544444444     0.362293333333     0          
O        O      0.437735555556     0.433047777778     0.374023333333     0          
O        O      0.464375555556     0.444444444444     0.333333333333     0          
O        O      0.512168888889     0.487831111111     0.365483333333     0          
O        O      0.430722222222     0.443057777778     0.250613333333     0          
O        O      0.410655555556     0.487977777778     0.273693333333     0          
O        O      0.485998888889     0.514001111111     0.263813333333     0          
O        O      0.412392222222     0.491451111111     0.438523333333     0          
O        O      0.488185555556     0.511814444444     0.433973333333     0          
O        O      0.440642222222     0.451001111111     0.459173333333     0          
O        O      0.411035555556     0.488737777778     0.195693333333     0          
O        O      0.487608888889     0.512391111111     0.198663333333     0          
O        O      0.588455555556     0.411544444444     0.362293333333     0          
O        O      0.566952222222     0.338021111111     0.374023333333     0          
O        O      0.555555555556     0.353264444444     0.333333333333     0          
O        O      0.512168888889     0.357671111111     0.365483333333     0          
O        O      0.556942222222     0.654331111111     0.250613333333     0          
O        O      0.512022222222     0.589344444444     0.273693333333     0          
O        O      0.485998888889     0.638664444444     0.263813333333     0          
O        O      0.508548888889     0.587607777778     0.438523333333     0          
O        O      0.488185555556     0.643037777778     0.433973333333     0          
O        O      0.548998888889     0.656307777778     0.459173333333     0          
O        O      0.511262222222     0.588964444444     0.195693333333     0          
O        O      0.487608888889     0.641884444444     0.198663333333     0          
O        O      0.621355555556     0.477344444444     0.304373333333     0          
O        O      0.340042222222     0.550867777778     0.292643333333     0          
O        O      0.598942222222     0.531217777778     0.301183333333     0          
O        O      0.347055555556     0.567891111111     0.416053333333     0          
O        O      0.367122222222     0.632877777778     0.392973333333     0          
O        O      0.625112222222     0.583557777778     0.402853333333     0          
O        O      0.365385555556     0.634614444444     0.228143333333     0          
O        O      0.622925555556     0.579184444444     0.232693333333     0          
O        O      0.337135555556     0.565914444444     0.207493333333     0          
O        O      0.366742222222     0.633257777778     0.470973333333     0          
O        O      0.623502222222     0.580337777778     0.468003333333     0          
O        O      0.666665555556     0.575061111111     0.500003333333     0          
O        O      0.522655555556     0.477344444444     0.304373333333     0          
O        O      0.449132222222     0.455841111111     0.292643333333     0          
O        O      0.468782222222     0.401057777778     0.301183333333     0          
O        O      0.432108888889     0.445831111111     0.416053333333     0          
O        O      0.367122222222     0.400911111111     0.392973333333     0          
O        O      0.416442222222     0.374887777778     0.402853333333     0          
O        O      0.365385555556     0.397437777778     0.228143333333     0          
O        O      0.420815555556     0.377074444444     0.232693333333     0          
O        O      0.434085555556     0.437887777778     0.207493333333     0          
O        O      0.366742222222     0.400151111111     0.470973333333     0          
O        O      0.419662222222     0.376497777778     0.468003333333     0          
O        O      0.424938888889     0.424937777778     0.500003333333     0          
O        O      0.522655555556     0.378644444444     0.304373333333     0          
O        O      0.544158888889     0.659957777778     0.292643333333     0          
O        O      0.598942222222     0.401057777778     0.301183333333     0          
O        O      0.554168888889     0.652944444444     0.416053333333     0          
O        O      0.599088888889     0.632877777778     0.392973333333     0          
O        O      0.625112222222     0.374887777778     0.402853333333     0          
O        O      0.602562222222     0.634614444444     0.228143333333     0          
O        O      0.622925555556     0.377074444444     0.232693333333     0          
O        O      0.562112222222     0.662864444444     0.207493333333     0          
O        O      0.599848888889     0.633257777778     0.470973333333     0          
O        O      0.623502222222     0.376497777778     0.468003333333     0          
O        O      0.449132222222     0.659957777778     0.292643333333     0          
O        O      0.464375555556     0.353264444444     0.333333333333     0          
O        O      0.432108888889     0.652944444444     0.416053333333     0          
O        O      0.434085555556     0.662864444444     0.207493333333     0          
O        O      0.340042222222     0.455841111111     0.292643333333     0          
O        O      0.646735555556     0.444444444444     0.333333333333     0          
O        O      0.347055555556     0.445831111111     0.416053333333     0          
O        O      0.337135555556     0.437887777778     0.207493333333     0          
O        O      0.666665555556     0.424937777778     0.500003333333     0          
O        O      0.544158888889     0.550867777778     0.292643333333     0          
O        O      0.555555555556     0.535624444444     0.333333333333     0          
O        O      0.554168888889     0.567891111111     0.416053333333     0          
O        O      0.562112222222     0.565914444444     0.207493333333     0          
O        O      0.575062222222     0.575061111111     0.500003333333     0          
O        O      0.437735555556     0.338021111111     0.374023333333     0          
O        O      0.430722222222     0.654331111111     0.250613333333     0          
O        O      0.440642222222     0.656307777778     0.459173333333     0          
O        O      0.661978888889     0.433047777778     0.374023333333     0          
O        O      0.345668888889     0.443057777778     0.250613333333     0          
O        O      0.343692222222     0.451001111111     0.459173333333     0          
O        O      0.566952222222     0.562264444444     0.374023333333     0          
O        O      0.556942222222     0.569277777778     0.250613333333     0          
O        O      0.548998888889     0.559357777778     0.459173333333     0          
O        O      0.477344444444     0.621355555556     0.695626666667     0          
O        O      0.550867777778     0.340042222222     0.707356666667     0          
O        O      0.535624444444     0.646735555556     0.666666666667     0          
O        O      0.531217777778     0.598942222222     0.698816666667     0          
O        O      0.567891111111     0.347055555556     0.583946666667     0          
O        O      0.632877777778     0.367122222222     0.607026666667     0          
O        O      0.583557777778     0.625112222222     0.597146666667     0          
O        O      0.634614444444     0.365385555556     0.771856666667     0          
O        O      0.579184444444     0.622925555556     0.767306666667     0          
O        O      0.565914444444     0.337135555556     0.792506666667     0          
O        O      0.633257777778     0.366742222222     0.529026666667     0          
O        O      0.580337777778     0.623502222222     0.531996666667     0          
O        O      0.575061111111     0.666665555556     0.499996666667     0          
O        O      0.378644444444     0.522655555556     0.695626666667     0          
O        O      0.659957777778     0.544158888889     0.707356666667     0          
O        O      0.353264444444     0.555555555556     0.666666666667     0          
O        O      0.401057777778     0.598942222222     0.698816666667     0          
O        O      0.652944444444     0.554168888889     0.583946666667     0          
O        O      0.632877777778     0.599088888889     0.607026666667     0          
O        O      0.374887777778     0.625112222222     0.597146666667     0          
O        O      0.634614444444     0.602562222222     0.771856666667     0          
O        O      0.377074444444     0.622925555556     0.767306666667     0          
O        O      0.662864444444     0.562112222222     0.792506666667     0          
O        O      0.633257777778     0.599848888889     0.529026666667     0          
O        O      0.376497777778     0.623502222222     0.531996666667     0          
O        O      0.477344444444     0.522655555556     0.695626666667     0          
O        O      0.455841111111     0.449132222222     0.707356666667     0          
O        O      0.444444444444     0.464375555556     0.666666666667     0          
O        O      0.401057777778     0.468782222222     0.698816666667     0          
O        O      0.445831111111     0.432108888889     0.583946666667     0          
O        O      0.400911111111     0.367122222222     0.607026666667     0          
O        O      0.374887777778     0.416442222222     0.597146666667     0          
O        O      0.397437777778     0.365385555556     0.771856666667     0          
O        O      0.377074444444     0.420815555556     0.767306666667     0          
O        O      0.437887777778     0.434085555556     0.792506666667     0          
O        O      0.400151111111     0.366742222222     0.529026666667     0          
O        O      0.376497777778     0.419662222222     0.531996666667     0          
O        O      0.510244444444     0.588455555556     0.637706666667     0          
O        O      0.562264444444     0.661978888889     0.625976666667     0          
O        O      0.487831111111     0.642328888889     0.634516666667     0          
O        O      0.569277777778     0.345668888889     0.749386666667     0          
O        O      0.589344444444     0.410655555556     0.726306666667     0          
O        O      0.514001111111     0.361335555556     0.736186666667     0          
O        O      0.587607777778     0.412392222222     0.561476666667     0          
O        O      0.511814444444     0.356962222222     0.566026666667     0          
O        O      0.559357777778     0.343692222222     0.540826666667     0          
O        O      0.588964444444     0.411035555556     0.804306666667     0          
O        O      0.512391111111     0.358115555556     0.801336666667     0          
O        O      0.411544444444     0.588455555556     0.637706666667     0          
O        O      0.338021111111     0.566952222222     0.625976666667     0          
O        O      0.357671111111     0.512168888889     0.634516666667     0          
O        O      0.654331111111     0.556942222222     0.749386666667     0          
O        O      0.589344444444     0.512022222222     0.726306666667     0          
O        O      0.638664444444     0.485998888889     0.736186666667     0          
O        O      0.587607777778     0.508548888889     0.561476666667     0          
O        O      0.643037777778     0.488185555556     0.566026666667     0          
O        O      0.656307777778     0.548998888889     0.540826666667     0          
O        O      0.588964444444     0.511262222222     0.804306666667     0          
O        O      0.641884444444     0.487608888889     0.801336666667     0          
O        O      0.411544444444     0.489755555556     0.637706666667     0          
O        O      0.433047777778     0.437735555556     0.625976666667     0          
O        O      0.487831111111     0.512168888889     0.634516666667     0          
O        O      0.443057777778     0.430722222222     0.749386666667     0          
O        O      0.487977777778     0.410655555556     0.726306666667     0          
O        O      0.514001111111     0.485998888889     0.736186666667     0          
O        O      0.491451111111     0.412392222222     0.561476666667     0          
O        O      0.511814444444     0.488185555556     0.566026666667     0          
O        O      0.451001111111     0.440642222222     0.540826666667     0          
O        O      0.488737777778     0.411035555556     0.804306666667     0          
O        O      0.512391111111     0.487608888889     0.801336666667     0          
O        O      0.338021111111     0.437735555556     0.625976666667     0          
O        O      0.353264444444     0.464375555556     0.666666666667     0          
O        O      0.654331111111     0.430722222222     0.749386666667     0          
O        O      0.656307777778     0.440642222222     0.540826666667     0          
O        O      0.562264444444     0.566952222222     0.625976666667     0          
O        O      0.535624444444     0.555555555556     0.666666666667     0          
O        O      0.569277777778     0.556942222222     0.749386666667     0          
O        O      0.559357777778     0.548998888889     0.540826666667     0          
O        O      0.433047777778     0.661978888889     0.625976666667     0          
O        O      0.444444444444     0.646735555556     0.666666666667     0          
O        O      0.443057777778     0.345668888889     0.749386666667     0          
O        O      0.451001111111     0.343692222222     0.540826666667     0          
O        O      0.659957777778     0.449132222222     0.707356666667     0          
O        O      0.652944444444     0.432108888889     0.583946666667     0          
O        O      0.662864444444     0.434085555556     0.792506666667     0          
O        O      0.550867777778     0.544158888889     0.707356666667     0          
O        O      0.567891111111     0.554168888889     0.583946666667     0          
O        O      0.565914444444     0.562112222222     0.792506666667     0          
O        O      0.455841111111     0.340042222222     0.707356666667     0          
O        O      0.445831111111     0.347055555556     0.583946666667     0          
O        O      0.437887777778     0.337135555556     0.792506666667     0          
O        O      0.424937777778     0.666665555556     0.499996666667     0          
O        O      0.366233333333     0.732466666667     0.028960000000     0          
O        O      0.439756666667     0.784486666667     0.040690000000     0          
O        O      0.424513333333     0.757846666667     0.000000000000     0          
O        O      0.420106666667     0.710053333333     0.032150000000     0          
O        O      0.456780000000     0.791500000000     0.917280000000     0          
O        O      0.521766666667     0.811566666667     0.940360000000     0          
O        O      0.472446666667     0.736223333333     0.930480000000     0          
O        O      0.523503333333     0.809830000000     0.105190000000     0          
O        O      0.468073333333     0.734036666667     0.100640000000     0          
O        O      0.454803333333     0.781580000000     0.125840000000     0          
O        O      0.522146666667     0.811186666667     0.862360000000     0          
O        O      0.469226666667     0.734613333333     0.865330000000     0          
O        O      0.463950000000     0.777776666667     0.833330000000     0          
O        O      0.600866666667     0.967100000000     0.028960000000     0          
O        O      0.548846666667     0.988603333333     0.040690000000     0          
O        O      0.575486666667     0.666666666667     0.000000000000     0          
O        O      0.623280000000     0.710053333333     0.032150000000     0          
O        O      0.541833333333     0.998613333333     0.917280000000     0          
O        O      0.521766666667     0.710200000000     0.940360000000     0          
O        O      0.597110000000     0.736223333333     0.930480000000     0          
O        O      0.523503333333     0.713673333333     0.105190000000     0          
O        O      0.599296666667     0.734036666667     0.100640000000     0          
O        O      0.551753333333     0.673223333333     0.125840000000     0          
O        O      0.522146666667     0.710960000000     0.862360000000     0          
O        O      0.598720000000     0.734613333333     0.865330000000     0          
O        O      0.555556666667     0.686173333333     0.833330000000     0          
O        O      0.366233333333     0.967100000000     0.028960000000     0          
O        O      0.344730000000     0.893576666667     0.040690000000     0          
O        O      0.333333333333     0.908820000000     0.000000000000     0          
O        O      0.623280000000     0.913226666667     0.032150000000     0          
O        O      0.334720000000     0.876553333333     0.917280000000     0          
O        O      0.623133333333     0.811566666667     0.940360000000     0          
O        O      0.597110000000     0.860886666667     0.930480000000     0          
O        O      0.619660000000     0.809830000000     0.105190000000     0          
O        O      0.599296666667     0.865260000000     0.100640000000     0          
O        O      0.660110000000     0.878530000000     0.125840000000     0          
O        O      0.622373333333     0.811186666667     0.862360000000     0          
O        O      0.598720000000     0.864106666667     0.865330000000     0          
O        O      0.647160000000     0.869383333333     0.833330000000     0          
O        O      0.399133333333     0.699566666667     0.971040000000     0          
O        O      0.451153333333     0.773090000000     0.959310000000     0          
O        O      0.376720000000     0.753440000000     0.967850000000     0          
O        O      0.458166666667     0.790113333333     0.082720000000     0          
O        O      0.478233333333     0.855100000000     0.059640000000     0          
O        O      0.402890000000     0.805780000000     0.069520000000     0          
O        O      0.476496666667     0.856836666667     0.894810000000     0          
O        O      0.400703333333     0.801406666667     0.899360000000     0          
O        O      0.448246666667     0.788136666667     0.874160000000     0          
O        O      0.477853333333     0.855480000000     0.137640000000     0          
O        O      0.401280000000     0.802560000000     0.134670000000     0          
O        O      0.444443333333     0.797283333333     0.166670000000     0          
O        O      0.633766666667     0.699566666667     0.971040000000     0          
O        O      0.560243333333     0.678063333333     0.959310000000     0          
O        O      0.579893333333     0.956613333333     0.967850000000     0          
O        O      0.543220000000     0.668053333333     0.082720000000     0          
O        O      0.478233333333     0.956466666667     0.059640000000     0          
O        O      0.527553333333     0.930443333333     0.069520000000     0          
O        O      0.476496666667     0.952993333333     0.894810000000     0          
O        O      0.531926666667     0.932630000000     0.899360000000     0          
O        O      0.545196666667     0.993443333333     0.874160000000     0          
O        O      0.477853333333     0.955706666667     0.137640000000     0          
O        O      0.530773333333     0.932053333333     0.134670000000     0          
O        O      0.536050000000     0.980493333333     0.166670000000     0          
O        O      0.633766666667     0.934200000000     0.971040000000     0          
O        O      0.655270000000     0.882180000000     0.959310000000     0          
O        O      0.376720000000     0.956613333333     0.967850000000     0          
O        O      0.665280000000     0.875166666667     0.082720000000     0          
O        O      0.376866666667     0.855100000000     0.059640000000     0          
O        O      0.402890000000     0.930443333333     0.069520000000     0          
O        O      0.380340000000     0.856836666667     0.894810000000     0          
O        O      0.400703333333     0.932630000000     0.899360000000     0          
O        O      0.339890000000     0.885086666667     0.874160000000     0          
O        O      0.377626666667     0.855480000000     0.137640000000     0          
O        O      0.401280000000     0.932053333333     0.134670000000     0          
O        O      0.352840000000     0.888890000000     0.166670000000     0          
O        O      0.560243333333     0.882180000000     0.959310000000     0          
O        O      0.575486666667     0.908820000000     0.000000000000     0          
O        O      0.543220000000     0.875166666667     0.082720000000     0          
O        O      0.545196666667     0.885086666667     0.874160000000     0          
O        O      0.536050000000     0.888890000000     0.166670000000     0          
O        O      0.451153333333     0.678063333333     0.959310000000     0          
O        O      0.424513333333     0.666666666667     0.000000000000     0          
O        O      0.458166666667     0.668053333333     0.082720000000     0          
O        O      0.448246666667     0.993443333333     0.874160000000     0          
O        O      0.444443333333     0.980493333333     0.166670000000     0          
O        O      0.655270000000     0.773090000000     0.959310000000     0          
O        O      0.333333333333     0.757846666667     0.000000000000     0          
O        O      0.665280000000     0.790113333333     0.082720000000     0          
O        O      0.339890000000     0.788136666667     0.874160000000     0          
O        O      0.352840000000     0.797283333333     0.166670000000     0          
O        O      0.548846666667     0.893576666667     0.040690000000     0          
O        O      0.541833333333     0.876553333333     0.917280000000     0          
O        O      0.551753333333     0.878530000000     0.125840000000     0          
O        O      0.555556666667     0.869383333333     0.833330000000     0          
O        O      0.439756666667     0.988603333333     0.040690000000     0          
O        O      0.456780000000     0.998613333333     0.917280000000     0          
O        O      0.454803333333     0.673223333333     0.125840000000     0          
O        O      0.463950000000     0.686173333333     0.833330000000     0          
O        O      0.344730000000     0.784486666667     0.040690000000     0          
O        O      0.334720000000     0.791500000000     0.917280000000     0          
O        O      0.660110000000     0.781580000000     0.125840000000     0          
O        O      0.647160000000     0.777776666667     0.833330000000     0          
O        O      0.588455555556     0.843577777778     0.362293333333     0          
O        O      0.661978888889     0.895597777778     0.374023333333     0          
O        O      0.646735555556     0.868957777778     0.333333333333     0          
O        O      0.642328888889     0.821164444444     0.365483333333     0          
O        O      0.345668888889     0.902611111111     0.250613333333     0          
O        O      0.410655555556     0.922677777778     0.273693333333     0          
O        O      0.361335555556     0.847334444444     0.263813333333     0          
O        O      0.412392222222     0.920941111111     0.438523333333     0          
O        O      0.356962222222     0.845147777778     0.433973333333     0          
O        O      0.343692222222     0.892691111111     0.459173333333     0          
O        O      0.411035555556     0.922297777778     0.195693333333     0          
O        O      0.358115555556     0.845724444444     0.198663333333     0          
O        O      0.489755555556     0.744877777778     0.362293333333     0          
O        O      0.437735555556     0.766381111111     0.374023333333     0          
O        O      0.464375555556     0.777777777778     0.333333333333     0          
O        O      0.512168888889     0.821164444444     0.365483333333     0          
O        O      0.430722222222     0.776391111111     0.250613333333     0          
O        O      0.410655555556     0.821311111111     0.273693333333     0          
O        O      0.485998888889     0.847334444444     0.263813333333     0          
O        O      0.412392222222     0.824784444444     0.438523333333     0          
O        O      0.488185555556     0.845147777778     0.433973333333     0          
O        O      0.440642222222     0.784334444444     0.459173333333     0          
O        O      0.411035555556     0.822071111111     0.195693333333     0          
O        O      0.487608888889     0.845724444444     0.198663333333     0          
O        O      0.588455555556     0.744877777778     0.362293333333     0          
O        O      0.566952222222     0.671354444444     0.374023333333     0          
O        O      0.555555555556     0.686597777778     0.333333333333     0          
O        O      0.512168888889     0.691004444444     0.365483333333     0          
O        O      0.556942222222     0.987664444444     0.250613333333     0          
O        O      0.512022222222     0.922677777778     0.273693333333     0          
O        O      0.485998888889     0.971997777778     0.263813333333     0          
O        O      0.508548888889     0.920941111111     0.438523333333     0          
O        O      0.488185555556     0.976371111111     0.433973333333     0          
O        O      0.548998888889     0.989641111111     0.459173333333     0          
O        O      0.511262222222     0.922297777778     0.195693333333     0          
O        O      0.487608888889     0.975217777778     0.198663333333     0          
O        O      0.621355555556     0.810677777778     0.304373333333     0          
O        O      0.340042222222     0.884201111111     0.292643333333     0          
O        O      0.598942222222     0.864551111111     0.301183333333     0          
O        O      0.347055555556     0.901224444444     0.416053333333     0          
O        O      0.367122222222     0.966211111111     0.392973333333     0          
O        O      0.625112222222     0.916891111111     0.402853333333     0          
O        O      0.365385555556     0.967947777778     0.228143333333     0          
O        O      0.622925555556     0.912517777778     0.232693333333     0          
O        O      0.337135555556     0.899247777778     0.207493333333     0          
O        O      0.366742222222     0.966591111111     0.470973333333     0          
O        O      0.623502222222     0.913671111111     0.468003333333     0          
O        O      0.666665555556     0.908394444444     0.500003333333     0          
O        O      0.522655555556     0.810677777778     0.304373333333     0          
O        O      0.449132222222     0.789174444444     0.292643333333     0          
O        O      0.468782222222     0.734391111111     0.301183333333     0          
O        O      0.432108888889     0.779164444444     0.416053333333     0          
O        O      0.367122222222     0.734244444444     0.392973333333     0          
O        O      0.416442222222     0.708221111111     0.402853333333     0          
O        O      0.365385555556     0.730771111111     0.228143333333     0          
O        O      0.420815555556     0.710407777778     0.232693333333     0          
O        O      0.434085555556     0.771221111111     0.207493333333     0          
O        O      0.366742222222     0.733484444444     0.470973333333     0          
O        O      0.419662222222     0.709831111111     0.468003333333     0          
O        O      0.424938888889     0.758271111111     0.500003333333     0          
O        O      0.522655555556     0.711977777778     0.304373333333     0          
O        O      0.544158888889     0.993291111111     0.292643333333     0          
O        O      0.598942222222     0.734391111111     0.301183333333     0          
O        O      0.554168888889     0.986277777778     0.416053333333     0          
O        O      0.599088888889     0.966211111111     0.392973333333     0          
O        O      0.625112222222     0.708221111111     0.402853333333     0          
O        O      0.602562222222     0.967947777778     0.228143333333     0          
O        O      0.622925555556     0.710407777778     0.232693333333     0          
O        O      0.562112222222     0.996197777778     0.207493333333     0          
O        O      0.599848888889     0.966591111111     0.470973333333     0          
O        O      0.623502222222     0.709831111111     0.468003333333     0          
O        O      0.449132222222     0.993291111111     0.292643333333     0          
O        O      0.464375555556     0.686597777778     0.333333333333     0          
O        O      0.432108888889     0.986277777778     0.416053333333     0          
O        O      0.434085555556     0.996197777778     0.207493333333     0          
O        O      0.340042222222     0.789174444444     0.292643333333     0          
O        O      0.646735555556     0.777777777778     0.333333333333     0          
O        O      0.347055555556     0.779164444444     0.416053333333     0          
O        O      0.337135555556     0.771221111111     0.207493333333     0          
O        O      0.666665555556     0.758271111111     0.500003333333     0          
O        O      0.544158888889     0.884201111111     0.292643333333     0          
O        O      0.555555555556     0.868957777778     0.333333333333     0          
O        O      0.554168888889     0.901224444444     0.416053333333     0          
O        O      0.562112222222     0.899247777778     0.207493333333     0          
O        O      0.575062222222     0.908394444444     0.500003333333     0          
O        O      0.437735555556     0.671354444444     0.374023333333     0          
O        O      0.430722222222     0.987664444444     0.250613333333     0          
O        O      0.440642222222     0.989641111111     0.459173333333     0          
O        O      0.661978888889     0.766381111111     0.374023333333     0          
O        O      0.345668888889     0.776391111111     0.250613333333     0          
O        O      0.343692222222     0.784334444444     0.459173333333     0          
O        O      0.566952222222     0.895597777778     0.374023333333     0          
O        O      0.556942222222     0.902611111111     0.250613333333     0          
O        O      0.548998888889     0.892691111111     0.459173333333     0          
O        O      0.477344444444     0.954688888889     0.695626666667     0          
O        O      0.550867777778     0.673375555556     0.707356666667     0          
O        O      0.535624444444     0.980068888889     0.666666666667     0          
O        O      0.531217777778     0.932275555556     0.698816666667     0          
O        O      0.567891111111     0.680388888889     0.583946666667     0          
O        O      0.632877777778     0.700455555556     0.607026666667     0          
O        O      0.583557777778     0.958445555556     0.597146666667     0          
O        O      0.634614444444     0.698718888889     0.771856666667     0          
O        O      0.579184444444     0.956258888889     0.767306666667     0          
O        O      0.565914444444     0.670468888889     0.792506666667     0          
O        O      0.633257777778     0.700075555556     0.529026666667     0          
O        O      0.580337777778     0.956835555556     0.531996666667     0          
O        O      0.378644444444     0.855988888889     0.695626666667     0          
O        O      0.659957777778     0.877492222222     0.707356666667     0          
O        O      0.353264444444     0.888888888889     0.666666666667     0          
O        O      0.401057777778     0.932275555556     0.698816666667     0          
O        O      0.652944444444     0.887502222222     0.583946666667     0          
O        O      0.632877777778     0.932422222222     0.607026666667     0          
O        O      0.374887777778     0.958445555556     0.597146666667     0          
O        O      0.634614444444     0.935895555556     0.771856666667     0          
O        O      0.377074444444     0.956258888889     0.767306666667     0          
O        O      0.662864444444     0.895445555556     0.792506666667     0          
O        O      0.633257777778     0.933182222222     0.529026666667     0          
O        O      0.376497777778     0.956835555556     0.531996666667     0          
O        O      0.477344444444     0.855988888889     0.695626666667     0          
O        O      0.455841111111     0.782465555556     0.707356666667     0          
O        O      0.444444444444     0.797708888889     0.666666666667     0          
O        O      0.401057777778     0.802115555556     0.698816666667     0          
O        O      0.445831111111     0.765442222222     0.583946666667     0          
O        O      0.400911111111     0.700455555556     0.607026666667     0          
O        O      0.374887777778     0.749775555556     0.597146666667     0          
O        O      0.397437777778     0.698718888889     0.771856666667     0          
O        O      0.377074444444     0.754148888889     0.767306666667     0          
O        O      0.437887777778     0.767418888889     0.792506666667     0          
O        O      0.400151111111     0.700075555556     0.529026666667     0          
O        O      0.376497777778     0.752995555556     0.531996666667     0          
O        O      0.510244444444     0.921788888889     0.637706666667     0          
O        O      0.562264444444     0.995312222222     0.625976666667     0          
O        O      0.487831111111     0.975662222222     0.634516666667     0          
O        O      0.569277777778     0.679002222222     0.749386666667     0          
O        O      0.589344444444     0.743988888889     0.726306666667     0          
O        O      0.514001111111     0.694668888889     0.736186666667     0          
O        O      0.587607777778     0.745725555556     0.561476666667     0          
O        O      0.511814444444     0.690295555556     0.566026666667     0          
O        O      0.559357777778     0.677025555556     0.540826666667     0          
O        O      0.588964444444     0.744368888889     0.804306666667     0          
O        O      0.512391111111     0.691448888889     0.801336666667     0          
O        O      0.411544444444     0.921788888889     0.637706666667     0          
O        O      0.338021111111     0.900285555556     0.625976666667     0          
O        O      0.357671111111     0.845502222222     0.634516666667     0          
O        O      0.654331111111     0.890275555556     0.749386666667     0          
O        O      0.589344444444     0.845355555556     0.726306666667     0          
O        O      0.638664444444     0.819332222222     0.736186666667     0          
O        O      0.587607777778     0.841882222222     0.561476666667     0          
O        O      0.643037777778     0.821518888889     0.566026666667     0          
O        O      0.656307777778     0.882332222222     0.540826666667     0          
O        O      0.588964444444     0.844595555556     0.804306666667     0          
O        O      0.641884444444     0.820942222222     0.801336666667     0          
O        O      0.411544444444     0.823088888889     0.637706666667     0          
O        O      0.433047777778     0.771068888889     0.625976666667     0          
O        O      0.487831111111     0.845502222222     0.634516666667     0          
O        O      0.443057777778     0.764055555556     0.749386666667     0          
O        O      0.487977777778     0.743988888889     0.726306666667     0          
O        O      0.514001111111     0.819332222222     0.736186666667     0          
O        O      0.491451111111     0.745725555556     0.561476666667     0          
O        O      0.511814444444     0.821518888889     0.566026666667     0          
O        O      0.451001111111     0.773975555556     0.540826666667     0          
O        O      0.488737777778     0.744368888889     0.804306666667     0          
O        O      0.512391111111     0.820942222222     0.801336666667     0          
O        O      0.338021111111     0.771068888889     0.625976666667     0          
O        O      0.353264444444     0.797708888889     0.666666666667     0          
O        O      0.654331111111     0.764055555556     0.749386666667     0          
O        O      0.656307777778     0.773975555556     0.540826666667     0          
O        O      0.562264444444     0.900285555556     0.625976666667     0          
O        O      0.535624444444     0.888888888889     0.666666666667     0          
O        O      0.569277777778     0.890275555556     0.749386666667     0          
O        O      0.559357777778     0.882332222222     0.540826666667     0          
O        O      0.433047777778     0.995312222222     0.625976666667     0          
O        O      0.444444444444     0.980068888889     0.666666666667     0          
O        O      0.443057777778     0.679002222222     0.749386666667     0          
O        O      0.451001111111     0.677025555556     0.540826666667     0          
O        O      0.659957777778     0.782465555556     0.707356666667     0          
O        O      0.652944444444     0.765442222222     0.583946666667     0          
O        O      0.662864444444     0.767418888889     0.792506666667     0          
O        O      0.550867777778     0.877492222222     0.707356666667     0          
O        O      0.567891111111     0.887502222222     0.583946666667     0          
O        O      0.565914444444     0.895445555556     0.792506666667     0          
O        O      0.455841111111     0.673375555556     0.707356666667     0          
O        O      0.445831111111     0.680388888889     0.583946666667     0          
O        O      0.437887777778     0.670468888889     0.792506666667     0          
O        O      0.699566666667     0.065800000000     0.028960000000     0          
O        O      0.773090000000     0.117820000000     0.040690000000     0          
O        O      0.757846666667     0.091180000000     0.000000000000     0          
O        O      0.753440000000     0.043386666667     0.032150000000     0          
O        O      0.790113333333     0.124833333333     0.917280000000     0          
O        O      0.855100000000     0.144900000000     0.940360000000     0          
O        O      0.805780000000     0.069556666667     0.930480000000     0          
O        O      0.856836666667     0.143163333333     0.105190000000     0          
O        O      0.801406666667     0.067370000000     0.100640000000     0          
O        O      0.788136666667     0.114913333333     0.125840000000     0          
O        O      0.855480000000     0.144520000000     0.862360000000     0          
O        O      0.802560000000     0.067946666667     0.865330000000     0          
O        O      0.797283333333     0.111110000000     0.833330000000     0          
O        O      0.934200000000     0.300433333333     0.028960000000     0          
O        O      0.882180000000     0.321936666667     0.040690000000     0          
O        O      0.908820000000     0.000000000000     0.000000000000     0          
O        O      0.956613333333     0.043386666667     0.032150000000     0          
O        O      0.875166666667     0.331946666667     0.917280000000     0          
O        O      0.855100000000     0.043533333333     0.940360000000     0          
O        O      0.930443333333     0.069556666667     0.930480000000     0          
O        O      0.856836666667     0.047006666667     0.105190000000     0          
O        O      0.932630000000     0.067370000000     0.100640000000     0          
O        O      0.885086666667     0.006556666667     0.125840000000     0          
O        O      0.855480000000     0.044293333333     0.862360000000     0          
O        O      0.932053333333     0.067946666667     0.865330000000     0          
O        O      0.888890000000     0.019506666667     0.833330000000     0          
O        O      0.699566666667     0.300433333333     0.028960000000     0          
O        O      0.678063333333     0.226910000000     0.040690000000     0          
O        O      0.666666666667     0.242153333333     0.000000000000     0          
O        O      0.956613333333     0.246560000000     0.032150000000     0          
O        O      0.668053333333     0.209886666667     0.917280000000     0          
O        O      0.956466666667     0.144900000000     0.940360000000     0          
O        O      0.930443333333     0.194220000000     0.930480000000     0          
O        O      0.952993333333     0.143163333333     0.105190000000     0          
O        O      0.932630000000     0.198593333333     0.100640000000     0          
O        O      0.993443333333     0.211863333333     0.125840000000     0          
O        O      0.955706666667     0.144520000000     0.862360000000     0          
O        O      0.932053333333     0.197440000000     0.865330000000     0          
O        O      0.980493333333     0.202716666667     0.833330000000     0          
O        O      0.732466666667     0.032900000000     0.971040000000     0          
O        O      0.784486666667     0.106423333333     0.959310000000     0          
O        O      0.710053333333     0.086773333333     0.967850000000     0          
O        O      0.791500000000     0.123446666667     0.082720000000     0          
O        O      0.811566666667     0.188433333333     0.059640000000     0          
O        O      0.736223333333     0.139113333333     0.069520000000     0          
O        O      0.809830000000     0.190170000000     0.894810000000     0          
O        O      0.734036666667     0.134740000000     0.899360000000     0          
O        O      0.781580000000     0.121470000000     0.874160000000     0          
O        O      0.811186666667     0.188813333333     0.137640000000     0          
O        O      0.734613333333     0.135893333333     0.134670000000     0          
O        O      0.777776666667     0.130616666667     0.166670000000     0          
O        O      0.967100000000     0.032900000000     0.971040000000     0          
O        O      0.893576666667     0.011396666667     0.959310000000     0          
O        O      0.913226666667     0.289946666667     0.967850000000     0          
O        O      0.876553333333     0.001386666667     0.082720000000     0          
O        O      0.811566666667     0.289800000000     0.059640000000     0          
O        O      0.860886666667     0.263776666667     0.069520000000     0          
O        O      0.809830000000     0.286326666667     0.894810000000     0          
O        O      0.865260000000     0.265963333333     0.899360000000     0          
O        O      0.878530000000     0.326776666667     0.874160000000     0          
O        O      0.811186666667     0.289040000000     0.137640000000     0          
O        O      0.864106666667     0.265386666667     0.134670000000     0          
O        O      0.869383333333     0.313826666667     0.166670000000     0          
O        O      0.967100000000     0.267533333333     0.971040000000     0          
O        O      0.988603333333     0.215513333333     0.959310000000     0          
O        O      0.710053333333     0.289946666667     0.967850000000     0          
O        O      0.998613333333     0.208500000000     0.082720000000     0          
O        O      0.710200000000     0.188433333333     0.059640000000     0          
O        O      0.736223333333     0.263776666667     0.069520000000     0          
O        O      0.713673333333     0.190170000000     0.894810000000     0          
O        O      0.734036666667     0.265963333333     0.899360000000     0          
O        O      0.673223333333     0.218420000000     0.874160000000     0          
O        O      0.710960000000     0.188813333333     0.137640000000     0          
O        O      0.734613333333     0.265386666667     0.134670000000     0          
O        O      0.686173333333     0.222223333333     0.166670000000     0          
O        O      0.893576666667     0.215513333333     0.959310000000     0          
O        O      0.908820000000     0.242153333333     0.000000000000     0          
O        O      0.876553333333     0.208500000000     0.082720000000     0          
O        O      0.878530000000     0.218420000000     0.874160000000     0          
O        O      0.869383333333     0.222223333333     0.166670000000     0          
O        O      0.784486666667     0.011396666667     0.959310000000     0          
O        O      0.757846666667     0.000000000000     0.000000000000     0          
O        O      0.791500000000     0.001386666667     0.082720000000     0          
O        O      0.781580000000     0.326776666667     0.874160000000     0          
O        O      0.777776666667     0.313826666667     0.166670000000     0          
O        O      0.988603333333     0.106423333333     0.959310000000     0          
O        O      0.666666666667     0.091180000000     0.000000000000     0          
O        O      0.998613333333     0.123446666667     0.082720000000     0          
O        O      0.673223333333     0.121470000000     0.874160000000     0          
O        O      0.686173333333     0.130616666667     0.166670000000     0          
O        O      0.882180000000     0.226910000000     0.040690000000     0          
O        O      0.875166666667     0.209886666667     0.917280000000     0          
O        O      0.885086666667     0.211863333333     0.125840000000     0          
O        O      0.888890000000     0.202716666667     0.833330000000     0          
O        O      0.773090000000     0.321936666667     0.040690000000     0          
O        O      0.790113333333     0.331946666667     0.917280000000     0          
O        O      0.788136666667     0.006556666667     0.125840000000     0          
O        O      0.797283333333     0.019506666667     0.833330000000     0          
O        O      0.678063333333     0.117820000000     0.040690000000     0          
O        O      0.668053333333     0.124833333333     0.917280000000     0          
O        O      0.993443333333     0.114913333333     0.125840000000     0          
O        O      0.980493333333     0.111110000000     0.833330000000     0          
O        O      0.921788888889     0.176911111111     0.362293333333     0          
O        O      0.995312222222     0.228931111111     0.374023333333     0          
O        O      0.980068888889     0.202291111111     0.333333333333     0          
O        O      0.975662222222     0.154497777778     0.365483333333     0          
O        O      0.679002222222     0.235944444444     0.250613333333     0          
O        O      0.743988888889     0.256011111111     0.273693333333     0          
O        O      0.694668888889     0.180667777778     0.263813333333     0          
O        O      0.745725555556     0.254274444444     0.438523333333     0          
O        O      0.690295555556     0.178481111111     0.433973333333     0          
O        O      0.677025555556     0.226024444444     0.459173333333     0          
O        O      0.744368888889     0.255631111111     0.195693333333     0          
O        O      0.691448888889     0.179057777778     0.198663333333     0          
O        O      0.823088888889     0.078211111111     0.362293333333     0          
O        O      0.771068888889     0.099714444444     0.374023333333     0          
O        O      0.797708888889     0.111111111111     0.333333333333     0          
O        O      0.845502222222     0.154497777778     0.365483333333     0          
O        O      0.764055555556     0.109724444444     0.250613333333     0          
O        O      0.743988888889     0.154644444444     0.273693333333     0          
O        O      0.819332222222     0.180667777778     0.263813333333     0          
O        O      0.745725555556     0.158117777778     0.438523333333     0          
O        O      0.821518888889     0.178481111111     0.433973333333     0          
O        O      0.773975555556     0.117667777778     0.459173333333     0          
O        O      0.744368888889     0.155404444444     0.195693333333     0          
O        O      0.820942222222     0.179057777778     0.198663333333     0          
O        O      0.921788888889     0.078211111111     0.362293333333     0          
O        O      0.900285555556     0.004687777778     0.374023333333     0          
O        O      0.888888888889     0.019931111111     0.333333333333     0          
O        O      0.845502222222     0.024337777778     0.365483333333     0          
O        O      0.890275555556     0.320997777778     0.250613333333     0          
O        O      0.845355555556     0.256011111111     0.273693333333     0          
O        O      0.819332222222     0.305331111111     0.263813333333     0          
O        O      0.841882222222     0.254274444444     0.438523333333     0          
O        O      0.821518888889     0.309704444444     0.433973333333     0          
O        O      0.882332222222     0.322974444444     0.459173333333     0          
O        O      0.844595555556     0.255631111111     0.195693333333     0          
O        O      0.820942222222     0.308551111111     0.198663333333     0          
O        O      0.954688888889     0.144011111111     0.304373333333     0          
O        O      0.673375555556     0.217534444444     0.292643333333     0          
O        O      0.932275555556     0.197884444444     0.301183333333     0          
O        O      0.680388888889     0.234557777778     0.416053333333     0          
O        O      0.700455555556     0.299544444444     0.392973333333     0          
O        O      0.958445555556     0.250224444444     0.402853333333     0          
O        O      0.698718888889     0.301281111111     0.228143333333     0          
O        O      0.956258888889     0.245851111111     0.232693333333     0          
O        O      0.670468888889     0.232581111111     0.207493333333     0          
O        O      0.700075555556     0.299924444444     0.470973333333     0          
O        O      0.956835555556     0.247004444444     0.468003333333     0          
O        O      0.855988888889     0.144011111111     0.304373333333     0          
O        O      0.782465555556     0.122507777778     0.292643333333     0          
O        O      0.802115555556     0.067724444444     0.301183333333     0          
O        O      0.765442222222     0.112497777778     0.416053333333     0          
O        O      0.700455555556     0.067577777778     0.392973333333     0          
O        O      0.749775555556     0.041554444444     0.402853333333     0          
O        O      0.698718888889     0.064104444444     0.228143333333     0          
O        O      0.754148888889     0.043741111111     0.232693333333     0          
O        O      0.767418888889     0.104554444444     0.207493333333     0          
O        O      0.700075555556     0.066817777778     0.470973333333     0          
O        O      0.752995555556     0.043164444444     0.468003333333     0          
O        O      0.758272222222     0.091604444444     0.500003333333     0          
O        O      0.855988888889     0.045311111111     0.304373333333     0          
O        O      0.877492222222     0.326624444444     0.292643333333     0          
O        O      0.932275555556     0.067724444444     0.301183333333     0          
O        O      0.887502222222     0.319611111111     0.416053333333     0          
O        O      0.932422222222     0.299544444444     0.392973333333     0          
O        O      0.958445555556     0.041554444444     0.402853333333     0          
O        O      0.935895555556     0.301281111111     0.228143333333     0          
O        O      0.956258888889     0.043741111111     0.232693333333     0          
O        O      0.895445555556     0.329531111111     0.207493333333     0          
O        O      0.933182222222     0.299924444444     0.470973333333     0          
O        O      0.956835555556     0.043164444444     0.468003333333     0          
O        O      0.908395555556     0.000001111111     0.500003333333     0          
O        O      0.782465555556     0.326624444444     0.292643333333     0          
O        O      0.797708888889     0.019931111111     0.333333333333     0          
O        O      0.765442222222     0.319611111111     0.416053333333     0          
O        O      0.767418888889     0.329531111111     0.207493333333     0          
O        O      0.758272222222     0.000001111111     0.500003333333     0          
O        O      0.673375555556     0.122507777778     0.292643333333     0          
O        O      0.980068888889     0.111111111111     0.333333333333     0          
O        O      0.680388888889     0.112497777778     0.416053333333     0          
O        O      0.670468888889     0.104554444444     0.207493333333     0          
O        O      0.877492222222     0.217534444444     0.292643333333     0          
O        O      0.888888888889     0.202291111111     0.333333333333     0          
O        O      0.887502222222     0.234557777778     0.416053333333     0          
O        O      0.895445555556     0.232581111111     0.207493333333     0          
O        O      0.908395555556     0.241727777778     0.500003333333     0          
O        O      0.771068888889     0.004687777778     0.374023333333     0          
O        O      0.764055555556     0.320997777778     0.250613333333     0          
O        O      0.773975555556     0.322974444444     0.459173333333     0          
O        O      0.995312222222     0.099714444444     0.374023333333     0          
O        O      0.679002222222     0.109724444444     0.250613333333     0          
O        O      0.677025555556     0.117667777778     0.459173333333     0          
O        O      0.900285555556     0.228931111111     0.374023333333     0          
O        O      0.890275555556     0.235944444444     0.250613333333     0          
O        O      0.882332222222     0.226024444444     0.459173333333     0          
O        O      0.810677777778     0.288022222222     0.695626666667     0          
O        O      0.884201111111     0.006708888889     0.707356666667     0          
O        O      0.868957777778     0.313402222222     0.666666666667     0          
O        O      0.864551111111     0.265608888889     0.698816666667     0          
O        O      0.901224444444     0.013722222222     0.583946666667     0          
O        O      0.966211111111     0.033788888889     0.607026666667     0          
O        O      0.916891111111     0.291778888889     0.597146666667     0          
O        O      0.967947777778     0.032052222222     0.771856666667     0          
O        O      0.912517777778     0.289592222222     0.767306666667     0          
O        O      0.899247777778     0.003802222222     0.792506666667     0          
O        O      0.966591111111     0.033408888889     0.529026666667     0          
O        O      0.913671111111     0.290168888889     0.531996666667     0          
O        O      0.908394444444     0.333332222222     0.499996666667     0          
O        O      0.711977777778     0.189322222222     0.695626666667     0          
O        O      0.993291111111     0.210825555556     0.707356666667     0          
O        O      0.686597777778     0.222222222222     0.666666666667     0          
O        O      0.734391111111     0.265608888889     0.698816666667     0          
O        O      0.986277777778     0.220835555556     0.583946666667     0          
O        O      0.966211111111     0.265755555556     0.607026666667     0          
O        O      0.708221111111     0.291778888889     0.597146666667     0          
O        O      0.967947777778     0.269228888889     0.771856666667     0          
O        O      0.710407777778     0.289592222222     0.767306666667     0          
O        O      0.996197777778     0.228778888889     0.792506666667     0          
O        O      0.966591111111     0.266515555556     0.529026666667     0          
O        O      0.709831111111     0.290168888889     0.531996666667     0          
O        O      0.810677777778     0.189322222222     0.695626666667     0          
O        O      0.789174444444     0.115798888889     0.707356666667     0          
O        O      0.777777777778     0.131042222222     0.666666666667     0          
O        O      0.734391111111     0.135448888889     0.698816666667     0          
O        O      0.779164444444     0.098775555556     0.583946666667     0          
O        O      0.734244444444     0.033788888889     0.607026666667     0          
O        O      0.708221111111     0.083108888889     0.597146666667     0          
O        O      0.730771111111     0.032052222222     0.771856666667     0          
O        O      0.710407777778     0.087482222222     0.767306666667     0          
O        O      0.771221111111     0.100752222222     0.792506666667     0          
O        O      0.733484444444     0.033408888889     0.529026666667     0          
O        O      0.709831111111     0.086328888889     0.531996666667     0          
O        O      0.843577777778     0.255122222222     0.637706666667     0          
O        O      0.895597777778     0.328645555556     0.625976666667     0          
O        O      0.821164444444     0.308995555556     0.634516666667     0          
O        O      0.902611111111     0.012335555556     0.749386666667     0          
O        O      0.922677777778     0.077322222222     0.726306666667     0          
O        O      0.847334444444     0.028002222222     0.736186666667     0          
O        O      0.920941111111     0.079058888889     0.561476666667     0          
O        O      0.845147777778     0.023628888889     0.566026666667     0          
O        O      0.892691111111     0.010358888889     0.540826666667     0          
O        O      0.922297777778     0.077702222222     0.804306666667     0          
O        O      0.845724444444     0.024782222222     0.801336666667     0          
O        O      0.744877777778     0.255122222222     0.637706666667     0          
O        O      0.671354444444     0.233618888889     0.625976666667     0          
O        O      0.691004444444     0.178835555556     0.634516666667     0          
O        O      0.987664444444     0.223608888889     0.749386666667     0          
O        O      0.922677777778     0.178688888889     0.726306666667     0          
O        O      0.971997777778     0.152665555556     0.736186666667     0          
O        O      0.920941111111     0.175215555556     0.561476666667     0          
O        O      0.976371111111     0.154852222222     0.566026666667     0          
O        O      0.989641111111     0.215665555556     0.540826666667     0          
O        O      0.922297777778     0.177928888889     0.804306666667     0          
O        O      0.975217777778     0.154275555556     0.801336666667     0          
O        O      0.744877777778     0.156422222222     0.637706666667     0          
O        O      0.766381111111     0.104402222222     0.625976666667     0          
O        O      0.821164444444     0.178835555556     0.634516666667     0          
O        O      0.776391111111     0.097388888889     0.749386666667     0          
O        O      0.821311111111     0.077322222222     0.726306666667     0          
O        O      0.847334444444     0.152665555556     0.736186666667     0          
O        O      0.824784444444     0.079058888889     0.561476666667     0          
O        O      0.845147777778     0.154852222222     0.566026666667     0          
O        O      0.784334444444     0.107308888889     0.540826666667     0          
O        O      0.822071111111     0.077702222222     0.804306666667     0          
O        O      0.845724444444     0.154275555556     0.801336666667     0          
O        O      0.671354444444     0.104402222222     0.625976666667     0          
O        O      0.686597777778     0.131042222222     0.666666666667     0          
O        O      0.987664444444     0.097388888889     0.749386666667     0          
O        O      0.989641111111     0.107308888889     0.540826666667     0          
O        O      0.895597777778     0.233618888889     0.625976666667     0          
O        O      0.868957777778     0.222222222222     0.666666666667     0          
O        O      0.902611111111     0.223608888889     0.749386666667     0          
O        O      0.892691111111     0.215665555556     0.540826666667     0          
O        O      0.766381111111     0.328645555556     0.625976666667     0          
O        O      0.777777777778     0.313402222222     0.666666666667     0          
O        O      0.776391111111     0.012335555556     0.749386666667     0          
O        O      0.784334444444     0.010358888889     0.540826666667     0          
O        O      0.993291111111     0.115798888889     0.707356666667     0          
O        O      0.986277777778     0.098775555556     0.583946666667     0          
O        O      0.996197777778     0.100752222222     0.792506666667     0          
O        O      0.884201111111     0.210825555556     0.707356666667     0          
O        O      0.901224444444     0.220835555556     0.583946666667     0          
O        O      0.899247777778     0.228778888889     0.792506666667     0          
O        O      0.789174444444     0.006708888889     0.707356666667     0          
O        O      0.779164444444     0.013722222222     0.583946666667     0          
O        O      0.771221111111     0.003802222222     0.792506666667     0          
O        O      0.758271111111     0.333332222222     0.499996666667     0          
O        O      0.699566666667     0.399133333333     0.028960000000     0          
O        O      0.773090000000     0.451153333333     0.040690000000     0          
O        O      0.757846666667     0.424513333333     0.000000000000     0          
O        O      0.753440000000     0.376720000000     0.032150000000     0          
O        O      0.790113333333     0.458166666667     0.917280000000     0          
O        O      0.855100000000     0.478233333333     0.940360000000     0          
O        O      0.805780000000     0.402890000000     0.930480000000     0          
O        O      0.856836666667     0.476496666667     0.105190000000     0          
O        O      0.801406666667     0.400703333333     0.100640000000     0          
O        O      0.788136666667     0.448246666667     0.125840000000     0          
O        O      0.855480000000     0.477853333333     0.862360000000     0          
O        O      0.802560000000     0.401280000000     0.865330000000     0          
O        O      0.797283333333     0.444443333333     0.833330000000     0          
O        O      0.934200000000     0.633766666667     0.028960000000     0          
O        O      0.882180000000     0.655270000000     0.040690000000     0          
O        O      0.908820000000     0.333333333333     0.000000000000     0          
O        O      0.956613333333     0.376720000000     0.032150000000     0          
O        O      0.875166666667     0.665280000000     0.917280000000     0          
O        O      0.855100000000     0.376866666667     0.940360000000     0          
O        O      0.930443333333     0.402890000000     0.930480000000     0          
O        O      0.856836666667     0.380340000000     0.105190000000     0          
O        O      0.932630000000     0.400703333333     0.100640000000     0          
O        O      0.885086666667     0.339890000000     0.125840000000     0          
O        O      0.855480000000     0.377626666667     0.862360000000     0          
O        O      0.932053333333     0.401280000000     0.865330000000     0          
O        O      0.888890000000     0.352840000000     0.833330000000     0          
O        O      0.699566666667     0.633766666667     0.028960000000     0          
O        O      0.678063333333     0.560243333333     0.040690000000     0          
O        O      0.666666666667     0.575486666667     0.000000000000     0          
O        O      0.956613333333     0.579893333333     0.032150000000     0          
O        O      0.668053333333     0.543220000000     0.917280000000     0          
O        O      0.956466666667     0.478233333333     0.940360000000     0          
O        O      0.930443333333     0.527553333333     0.930480000000     0          
O        O      0.952993333333     0.476496666667     0.105190000000     0          
O        O      0.932630000000     0.531926666667     0.100640000000     0          
O        O      0.993443333333     0.545196666667     0.125840000000     0          
O        O      0.955706666667     0.477853333333     0.862360000000     0          
O        O      0.932053333333     0.530773333333     0.865330000000     0          
O        O      0.980493333333     0.536050000000     0.833330000000     0          
O        O      0.732466666667     0.366233333333     0.971040000000     0          
O        O      0.784486666667     0.439756666667     0.959310000000     0          
O        O      0.710053333333     0.420106666667     0.967850000000     0          
O        O      0.791500000000     0.456780000000     0.082720000000     0          
O        O      0.811566666667     0.521766666667     0.059640000000     0          
O        O      0.736223333333     0.472446666667     0.069520000000     0          
O        O      0.809830000000     0.523503333333     0.894810000000     0          
O        O      0.734036666667     0.468073333333     0.899360000000     0          
O        O      0.781580000000     0.454803333333     0.874160000000     0          
O        O      0.811186666667     0.522146666667     0.137640000000     0          
O        O      0.734613333333     0.469226666667     0.134670000000     0          
O        O      0.777776666667     0.463950000000     0.166670000000     0          
O        O      0.967100000000     0.366233333333     0.971040000000     0          
O        O      0.893576666667     0.344730000000     0.959310000000     0          
O        O      0.913226666667     0.623280000000     0.967850000000     0          
O        O      0.876553333333     0.334720000000     0.082720000000     0          
O        O      0.811566666667     0.623133333333     0.059640000000     0          
O        O      0.860886666667     0.597110000000     0.069520000000     0          
O        O      0.809830000000     0.619660000000     0.894810000000     0          
O        O      0.865260000000     0.599296666667     0.899360000000     0          
O        O      0.878530000000     0.660110000000     0.874160000000     0          
O        O      0.811186666667     0.622373333333     0.137640000000     0          
O        O      0.864106666667     0.598720000000     0.134670000000     0          
O        O      0.869383333333     0.647160000000     0.166670000000     0          
O        O      0.967100000000     0.600866666667     0.971040000000     0          
O        O      0.988603333333     0.548846666667     0.959310000000     0          
O        O      0.710053333333     0.623280000000     0.967850000000     0          
O        O      0.998613333333     0.541833333333     0.082720000000     0          
O        O      0.710200000000     0.521766666667     0.059640000000     0          
O        O      0.736223333333     0.597110000000     0.069520000000     0          
O        O      0.713673333333     0.523503333333     0.894810000000     0          
O        O      0.734036666667     0.599296666667     0.899360000000     0          
O        O      0.673223333333     0.551753333333     0.874160000000     0          
O        O      0.710960000000     0.522146666667     0.137640000000     0          
O        O      0.734613333333     0.598720000000     0.134670000000     0          
O        O      0.686173333333     0.555556666667     0.166670000000     0          
O        O      0.893576666667     0.548846666667     0.959310000000     0          
O        O      0.908820000000     0.575486666667     0.000000000000     0          
O        O      0.876553333333     0.541833333333     0.082720000000     0          
O        O      0.878530000000     0.551753333333     0.874160000000     0          
O        O      0.869383333333     0.555556666667     0.166670000000     0          
O        O      0.784486666667     0.344730000000     0.959310000000     0          
O        O      0.757846666667     0.333333333333     0.000000000000     0          
O        O      0.791500000000     0.334720000000     0.082720000000     0          
O        O      0.781580000000     0.660110000000     0.874160000000     0          
O        O      0.777776666667     0.647160000000     0.166670000000     0          
O        O      0.988603333333     0.439756666667     0.959310000000     0          
O        O      0.666666666667     0.424513333333     0.000000000000     0          
O        O      0.998613333333     0.456780000000     0.082720000000     0          
O        O      0.673223333333     0.454803333333     0.874160000000     0          
O        O      0.686173333333     0.463950000000     0.166670000000     0          
O        O      0.882180000000     0.560243333333     0.040690000000     0          
O        O      0.875166666667     0.543220000000     0.917280000000     0          
O        O      0.885086666667     0.545196666667     0.125840000000     0          
O        O      0.888890000000     0.536050000000     0.833330000000     0          
O        O      0.773090000000     0.655270000000     0.040690000000     0          
O        O      0.790113333333     0.665280000000     0.917280000000     0          
O        O      0.788136666667     0.339890000000     0.125840000000     0          
O        O      0.797283333333     0.352840000000     0.833330000000     0          
O        O      0.678063333333     0.451153333333     0.040690000000     0          
O        O      0.668053333333     0.458166666667     0.917280000000     0          
O        O      0.993443333333     0.448246666667     0.125840000000     0          
O        O      0.980493333333     0.444443333333     0.833330000000     0          
O        O      0.921788888889     0.510244444444     0.362293333333     0          
O        O      0.995312222222     0.562264444444     0.374023333333     0          
O        O      0.980068888889     0.535624444444     0.333333333333     0          
O        O      0.975662222222     0.487831111111     0.365483333333     0          
O        O      0.679002222222     0.569277777778     0.250613333333     0          
O        O      0.743988888889     0.589344444444     0.273693333333     0          
O        O      0.694668888889     0.514001111111     0.263813333333     0          
O        O      0.745725555556     0.587607777778     0.438523333333     0          
O        O      0.690295555556     0.511814444444     0.433973333333     0          
O        O      0.677025555556     0.559357777778     0.459173333333     0          
O        O      0.744368888889     0.588964444444     0.195693333333     0          
O        O      0.691448888889     0.512391111111     0.198663333333     0          
O        O      0.823088888889     0.411544444444     0.362293333333     0          
O        O      0.771068888889     0.433047777778     0.374023333333     0          
O        O      0.797708888889     0.444444444444     0.333333333333     0          
O        O      0.845502222222     0.487831111111     0.365483333333     0          
O        O      0.764055555556     0.443057777778     0.250613333333     0          
O        O      0.743988888889     0.487977777778     0.273693333333     0          
O        O      0.819332222222     0.514001111111     0.263813333333     0          
O        O      0.745725555556     0.491451111111     0.438523333333     0          
O        O      0.821518888889     0.511814444444     0.433973333333     0          
O        O      0.773975555556     0.451001111111     0.459173333333     0          
O        O      0.744368888889     0.488737777778     0.195693333333     0          
O        O      0.820942222222     0.512391111111     0.198663333333     0          
O        O      0.921788888889     0.411544444444     0.362293333333     0          
O        O      0.900285555556     0.338021111111     0.374023333333     0          
O        O      0.888888888889     0.353264444444     0.333333333333     0          
O        O      0.845502222222     0.357671111111     0.365483333333     0          
O        O      0.890275555556     0.654331111111     0.250613333333     0          
O        O      0.845355555556     0.589344444444     0.273693333333     0          
O        O      0.819332222222     0.638664444444     0.263813333333     0          
O        O      0.841882222222     0.587607777778     0.438523333333     0          
O        O      0.821518888889     0.643037777778     0.433973333333     0          
O        O      0.882332222222     0.656307777778     0.459173333333     0          
O        O      0.844595555556     0.588964444444     0.195693333333     0          
O        O      0.820942222222     0.641884444444     0.198663333333     0          
O        O      0.954688888889     0.477344444444     0.304373333333     0          
O        O      0.673375555556     0.550867777778     0.292643333333     0          
O        O      0.932275555556     0.531217777778     0.301183333333     0          
O        O      0.680388888889     0.567891111111     0.416053333333     0          
O        O      0.700455555556     0.632877777778     0.392973333333     0          
O        O      0.958445555556     0.583557777778     0.402853333333     0          
O        O      0.698718888889     0.634614444444     0.228143333333     0          
O        O      0.956258888889     0.579184444444     0.232693333333     0          
O        O      0.670468888889     0.565914444444     0.207493333333     0          
O        O      0.700075555556     0.633257777778     0.470973333333     0          
O        O      0.956835555556     0.580337777778     0.468003333333     0          
O        O      0.855988888889     0.477344444444     0.304373333333     0          
O        O      0.782465555556     0.455841111111     0.292643333333     0          
O        O      0.802115555556     0.401057777778     0.301183333333     0          
O        O      0.765442222222     0.445831111111     0.416053333333     0          
O        O      0.700455555556     0.400911111111     0.392973333333     0          
O        O      0.749775555556     0.374887777778     0.402853333333     0          
O        O      0.698718888889     0.397437777778     0.228143333333     0          
O        O      0.754148888889     0.377074444444     0.232693333333     0          
O        O      0.767418888889     0.437887777778     0.207493333333     0          
O        O      0.700075555556     0.400151111111     0.470973333333     0          
O        O      0.752995555556     0.376497777778     0.468003333333     0          
O        O      0.758272222222     0.424937777778     0.500003333333     0          
O        O      0.855988888889     0.378644444444     0.304373333333     0          
O        O      0.877492222222     0.659957777778     0.292643333333     0          
O        O      0.932275555556     0.401057777778     0.301183333333     0          
O        O      0.887502222222     0.652944444444     0.416053333333     0          
O        O      0.932422222222     0.632877777778     0.392973333333     0          
O        O      0.958445555556     0.374887777778     0.402853333333     0          
O        O      0.935895555556     0.634614444444     0.228143333333     0          
O        O      0.956258888889     0.377074444444     0.232693333333     0          
O        O      0.895445555556     0.662864444444     0.207493333333     0          
O        O      0.933182222222     0.633257777778     0.470973333333     0          
O        O      0.956835555556     0.376497777778     0.468003333333     0          
O        O      0.782465555556     0.659957777778     0.292643333333     0          
O        O      0.797708888889     0.353264444444     0.333333333333     0          
O        O      0.765442222222     0.652944444444     0.416053333333     0          
O        O      0.767418888889     0.662864444444     0.207493333333     0          
O        O      0.673375555556     0.455841111111     0.292643333333     0          
O        O      0.980068888889     0.444444444444     0.333333333333     0          
O        O      0.680388888889     0.445831111111     0.416053333333     0          
O        O      0.670468888889     0.437887777778     0.207493333333     0          
O        O      0.877492222222     0.550867777778     0.292643333333     0          
O        O      0.888888888889     0.535624444444     0.333333333333     0          
O        O      0.887502222222     0.567891111111     0.416053333333     0          
O        O      0.895445555556     0.565914444444     0.207493333333     0          
O        O      0.908395555556     0.575061111111     0.500003333333     0          
O        O      0.771068888889     0.338021111111     0.374023333333     0          
O        O      0.764055555556     0.654331111111     0.250613333333     0          
O        O      0.773975555556     0.656307777778     0.459173333333     0          
O        O      0.995312222222     0.433047777778     0.374023333333     0          
O        O      0.679002222222     0.443057777778     0.250613333333     0          
O        O      0.677025555556     0.451001111111     0.459173333333     0          
O        O      0.900285555556     0.562264444444     0.374023333333     0          
O        O      0.890275555556     0.569277777778     0.250613333333     0          
O        O      0.882332222222     0.559357777778     0.459173333333     0          
O        O      0.810677777778     0.621355555556     0.695626666667     0          
O        O      0.884201111111     0.340042222222     0.707356666667     0          
O        O      0.868957777778     0.646735555556     0.666666666667     0          
O        O      0.864551111111     0.598942222222     0.698816666667     0          
O        O      0.901224444444     0.347055555556     0.583946666667     0          
O        O      0.966211111111     0.367122222222     0.607026666667     0          
O        O      0.916891111111     0.625112222222     0.597146666667     0          
O        O      0.967947777778     0.365385555556     0.771856666667     0          
O        O      0.912517777778     0.622925555556     0.767306666667     0          
O        O      0.899247777778     0.337135555556     0.792506666667     0          
O        O      0.966591111111     0.366742222222     0.529026666667     0          
O        O      0.913671111111     0.623502222222     0.531996666667     0          
O        O      0.908394444444     0.666665555556     0.499996666667     0          
O        O      0.711977777778     0.522655555556     0.695626666667     0          
O        O      0.993291111111     0.544158888889     0.707356666667     0          
O        O      0.686597777778     0.555555555556     0.666666666667     0          
O        O      0.734391111111     0.598942222222     0.698816666667     0          
O        O      0.986277777778     0.554168888889     0.583946666667     0          
O        O      0.966211111111     0.599088888889     0.607026666667     0          
O        O      0.708221111111     0.625112222222     0.597146666667     0          
O        O      0.967947777778     0.602562222222     0.771856666667     0          
O        O      0.710407777778     0.622925555556     0.767306666667     0          
O        O      0.996197777778     0.562112222222     0.792506666667     0          
O        O      0.966591111111     0.599848888889     0.529026666667     0          
O        O      0.709831111111     0.623502222222     0.531996666667     0          
O        O      0.810677777778     0.522655555556     0.695626666667     0          
O        O      0.789174444444     0.449132222222     0.707356666667     0          
O        O      0.777777777778     0.464375555556     0.666666666667     0          
O        O      0.734391111111     0.468782222222     0.698816666667     0          
O        O      0.779164444444     0.432108888889     0.583946666667     0          
O        O      0.734244444444     0.367122222222     0.607026666667     0          
O        O      0.708221111111     0.416442222222     0.597146666667     0          
O        O      0.730771111111     0.365385555556     0.771856666667     0          
O        O      0.710407777778     0.420815555556     0.767306666667     0          
O        O      0.771221111111     0.434085555556     0.792506666667     0          
O        O      0.733484444444     0.366742222222     0.529026666667     0          
O        O      0.709831111111     0.419662222222     0.531996666667     0          
O        O      0.843577777778     0.588455555556     0.637706666667     0          
O        O      0.895597777778     0.661978888889     0.625976666667     0          
O        O      0.821164444444     0.642328888889     0.634516666667     0          
O        O      0.902611111111     0.345668888889     0.749386666667     0          
O        O      0.922677777778     0.410655555556     0.726306666667     0          
O        O      0.847334444444     0.361335555556     0.736186666667     0          
O        O      0.920941111111     0.412392222222     0.561476666667     0          
O        O      0.845147777778     0.356962222222     0.566026666667     0          
O        O      0.892691111111     0.343692222222     0.540826666667     0          
O        O      0.922297777778     0.411035555556     0.804306666667     0          
O        O      0.845724444444     0.358115555556     0.801336666667     0          
O        O      0.744877777778     0.588455555556     0.637706666667     0          
O        O      0.671354444444     0.566952222222     0.625976666667     0          
O        O      0.691004444444     0.512168888889     0.634516666667     0          
O        O      0.987664444444     0.556942222222     0.749386666667     0          
O        O      0.922677777778     0.512022222222     0.726306666667     0          
O        O      0.971997777778     0.485998888889     0.736186666667     0          
O        O      0.920941111111     0.508548888889     0.561476666667     0          
O        O      0.976371111111     0.488185555556     0.566026666667     0          
O        O      0.989641111111     0.548998888889     0.540826666667     0          
O        O      0.922297777778     0.511262222222     0.804306666667     0          
O        O      0.975217777778     0.487608888889     0.801336666667     0          
O        O      0.744877777778     0.489755555556     0.637706666667     0          
O        O      0.766381111111     0.437735555556     0.625976666667     0          
O        O      0.821164444444     0.512168888889     0.634516666667     0          
O        O      0.776391111111     0.430722222222     0.749386666667     0          
O        O      0.821311111111     0.410655555556     0.726306666667     0          
O        O      0.847334444444     0.485998888889     0.736186666667     0          
O        O      0.824784444444     0.412392222222     0.561476666667     0          
O        O      0.845147777778     0.488185555556     0.566026666667     0          
O        O      0.784334444444     0.440642222222     0.540826666667     0          
O        O      0.822071111111     0.411035555556     0.804306666667     0          
O        O      0.845724444444     0.487608888889     0.801336666667     0          
O        O      0.671354444444     0.437735555556     0.625976666667     0          
O        O      0.686597777778     0.464375555556     0.666666666667     0          
O        O      0.987664444444     0.430722222222     0.749386666667     0          
O        O      0.989641111111     0.440642222222     0.540826666667     0          
O        O      0.895597777778     0.566952222222     0.625976666667     0          
O        O      0.868957777778     0.555555555556     0.666666666667     0          
O        O      0.902611111111     0.556942222222     0.749386666667     0          
O        O      0.892691111111     0.548998888889     0.540826666667     0          
O        O      0.766381111111     0.661978888889     0.625976666667     0          
O        O      0.777777777778     0.646735555556     0.666666666667     0          
O        O      0.776391111111     0.345668888889     0.749386666667     0          
O        O      0.784334444444     0.343692222222     0.540826666667     0          
O        O      0.993291111111     0.449132222222     0.707356666667     0          
O        O      0.986277777778     0.432108888889     0.583946666667     0          
O        O      0.996197777778     0.434085555556     0.792506666667     0          
O        O      0.884201111111     0.544158888889     0.707356666667     0          
O        O      0.901224444444     0.554168888889     0.583946666667     0          
O        O      0.899247777778     0.562112222222     0.792506666667     0          
O        O      0.789174444444     0.340042222222     0.707356666667     0          
O        O      0.779164444444     0.347055555556     0.583946666667     0          
O        O      0.771221111111     0.337135555556     0.792506666667     0          
O        O      0.758271111111     0.666665555556     0.499996666667     0          
O        O      0.699566666667     0.732466666667     0.028960000000     0          
O        O      0.773090000000     0.784486666667     0.040690000000     0          
O        O      0.757846666667     0.757846666667     0.000000000000     0          
O        O      0.753440000000     0.710053333333     0.032150000000     0          
O        O      0.790113333333     0.791500000000     0.917280000000     0          
O        O      0.855100000000     0.811566666667     0.940360000000     0          
O        O      0.805780000000     0.736223333333     0.930480000000     0          
O        O      0.856836666667     0.809830000000     0.105190000000     0          
O        O      0.801406666667     0.734036666667     0.100640000000     0          
O        O      0.788136666667     0.781580000000     0.125840000000     0          
O        O      0.855480000000     0.811186666667     0.862360000000     0          
O        O      0.802560000000     0.734613333333     0.865330000000     0          
O        O      0.797283333333     0.777776666667     0.833330000000     0          
O        O      0.934200000000     0.967100000000     0.028960000000     0          
O        O      0.882180000000     0.988603333333     0.040690000000     0          
O        O      0.908820000000     0.666666666667     0.000000000000     0          
O        O      0.956613333333     0.710053333333     0.032150000000     0          
O        O      0.875166666667     0.998613333333     0.917280000000     0          
O        O      0.855100000000     0.710200000000     0.940360000000     0          
O        O      0.930443333333     0.736223333333     0.930480000000     0          
O        O      0.856836666667     0.713673333333     0.105190000000     0          
O        O      0.932630000000     0.734036666667     0.100640000000     0          
O        O      0.885086666667     0.673223333333     0.125840000000     0          
O        O      0.855480000000     0.710960000000     0.862360000000     0          
O        O      0.932053333333     0.734613333333     0.865330000000     0          
O        O      0.888890000000     0.686173333333     0.833330000000     0          
O        O      0.699566666667     0.967100000000     0.028960000000     0          
O        O      0.678063333333     0.893576666667     0.040690000000     0          
O        O      0.666666666667     0.908820000000     0.000000000000     0          
O        O      0.956613333333     0.913226666667     0.032150000000     0          
O        O      0.668053333333     0.876553333333     0.917280000000     0          
O        O      0.956466666667     0.811566666667     0.940360000000     0          
O        O      0.930443333333     0.860886666667     0.930480000000     0          
O        O      0.952993333333     0.809830000000     0.105190000000     0          
O        O      0.932630000000     0.865260000000     0.100640000000     0          
O        O      0.993443333333     0.878530000000     0.125840000000     0          
O        O      0.955706666667     0.811186666667     0.862360000000     0          
O        O      0.932053333333     0.864106666667     0.865330000000     0          
O        O      0.980493333333     0.869383333333     0.833330000000     0          
O        O      0.732466666667     0.699566666667     0.971040000000     0          
O        O      0.784486666667     0.773090000000     0.959310000000     0          
O        O      0.710053333333     0.753440000000     0.967850000000     0          
O        O      0.791500000000     0.790113333333     0.082720000000     0          
O        O      0.811566666667     0.855100000000     0.059640000000     0          
O        O      0.736223333333     0.805780000000     0.069520000000     0          
O        O      0.809830000000     0.856836666667     0.894810000000     0          
O        O      0.734036666667     0.801406666667     0.899360000000     0          
O        O      0.781580000000     0.788136666667     0.874160000000     0          
O        O      0.811186666667     0.855480000000     0.137640000000     0          
O        O      0.734613333333     0.802560000000     0.134670000000     0          
O        O      0.777776666667     0.797283333333     0.166670000000     0          
O        O      0.967100000000     0.699566666667     0.971040000000     0          
O        O      0.893576666667     0.678063333333     0.959310000000     0          
O        O      0.913226666667     0.956613333333     0.967850000000     0          
O        O      0.876553333333     0.668053333333     0.082720000000     0          
O        O      0.811566666667     0.956466666667     0.059640000000     0          
O        O      0.860886666667     0.930443333333     0.069520000000     0          
O        O      0.809830000000     0.952993333333     0.894810000000     0          
O        O      0.865260000000     0.932630000000     0.899360000000     0          
O        O      0.878530000000     0.993443333333     0.874160000000     0          
O        O      0.811186666667     0.955706666667     0.137640000000     0          
O        O      0.864106666667     0.932053333333     0.134670000000     0          
O        O      0.869383333333     0.980493333333     0.166670000000     0          
O        O      0.967100000000     0.934200000000     0.971040000000     0          
O        O      0.988603333333     0.882180000000     0.959310000000     0          
O        O      0.710053333333     0.956613333333     0.967850000000     0          
O        O      0.998613333333     0.875166666667     0.082720000000     0          
O        O      0.710200000000     0.855100000000     0.059640000000     0          
O        O      0.736223333333     0.930443333333     0.069520000000     0          
O        O      0.713673333333     0.856836666667     0.894810000000     0          
O        O      0.734036666667     0.932630000000     0.899360000000     0          
O        O      0.673223333333     0.885086666667     0.874160000000     0          
O        O      0.710960000000     0.855480000000     0.137640000000     0          
O        O      0.734613333333     0.932053333333     0.134670000000     0          
O        O      0.686173333333     0.888890000000     0.166670000000     0          
O        O      0.893576666667     0.882180000000     0.959310000000     0          
O        O      0.908820000000     0.908820000000     0.000000000000     0          
O        O      0.876553333333     0.875166666667     0.082720000000     0          
O        O      0.878530000000     0.885086666667     0.874160000000     0          
O        O      0.869383333333     0.888890000000     0.166670000000     0          
O        O      0.784486666667     0.678063333333     0.959310000000     0          
O        O      0.757846666667     0.666666666667     0.000000000000     0          
O        O      0.791500000000     0.668053333333     0.082720000000     0          
O        O      0.781580000000     0.993443333333     0.874160000000     0          
O        O      0.777776666667     0.980493333333     0.166670000000     0          
O        O      0.988603333333     0.773090000000     0.959310000000     0          
O        O      0.666666666667     0.757846666667     0.000000000000     0          
O        O      0.998613333333     0.790113333333     0.082720000000     0          
O        O      0.673223333333     0.788136666667     0.874160000000     0          
O        O      0.686173333333     0.797283333333     0.166670000000     0          
O        O      0.882180000000     0.893576666667     0.040690000000     0          
O        O      0.875166666667     0.876553333333     0.917280000000     0          
O        O      0.885086666667     0.878530000000     0.125840000000     0          
O        O      0.888890000000     0.869383333333     0.833330000000     0          
O        O      0.773090000000     0.988603333333     0.040690000000     0          
O        O      0.790113333333     0.998613333333     0.917280000000     0          
O        O      0.788136666667     0.673223333333     0.125840000000     0          
O        O      0.797283333333     0.686173333333     0.833330000000     0          
O        O      0.678063333333     0.784486666667     0.040690000000     0          
O        O      0.668053333333     0.791500000000     0.917280000000     0          
O        O      0.993443333333     0.781580000000     0.125840000000     0          
O        O      0.980493333333     0.777776666667     0.833330000000     0          
O        O      0.921788888889     0.843577777778     0.362293333333     0          
O        O      0.995312222222     0.895597777778     0.374023333333     0          
O        O      0.980068888889     0.868957777778     0.333333333333     0          
O        O      0.975662222222     0.821164444444     0.365483333333     0          
O        O      0.679002222222     0.902611111111     0.250613333333     0          
O        O      0.743988888889     0.922677777778     0.273693333333     0          
O        O      0.694668888889     0.847334444444     0.263813333333     0          
O        O      0.745725555556     0.920941111111     0.438523333333     0          
O        O      0.690295555556     0.845147777778     0.433973333333     0          
O        O      0.677025555556     0.892691111111     0.459173333333     0          
O        O      0.744368888889     0.922297777778     0.195693333333     0          
O        O      0.691448888889     0.845724444444     0.198663333333     0          
O        O      0.823088888889     0.744877777778     0.362293333333     0          
O        O      0.771068888889     0.766381111111     0.374023333333     0          
O        O      0.797708888889     0.777777777778     0.333333333333     0          
O        O      0.845502222222     0.821164444444     0.365483333333     0          
O        O      0.764055555556     0.776391111111     0.250613333333     0          
O        O      0.743988888889     0.821311111111     0.273693333333     0          
O        O      0.819332222222     0.847334444444     0.263813333333     0          
O        O      0.745725555556     0.824784444444     0.438523333333     0          
O        O      0.821518888889     0.845147777778     0.433973333333     0          
O        O      0.773975555556     0.784334444444     0.459173333333     0          
O        O      0.744368888889     0.822071111111     0.195693333333     0          
O        O      0.820942222222     0.845724444444     0.198663333333     0          
O        O      0.921788888889     0.744877777778     0.362293333333     0          
O        O      0.900285555556     0.671354444444     0.374023333333     0          
O        O      0.888888888889     0.686597777778     0.333333333333     0          
O        O      0.845502222222     0.691004444444     0.365483333333     0          
O        O      0.890275555556     0.987664444444     0.250613333333     0          
O        O      0.845355555556     0.922677777778     0.273693333333     0          
O        O      0.819332222222     0.971997777778     0.263813333333     0          
O        O      0.841882222222     0.920941111111     0.438523333333     0          
O        O      0.821518888889     0.976371111111     0.433973333333     0          
O        O      0.882332222222     0.989641111111     0.459173333333     0          
O        O      0.844595555556     0.922297777778     0.195693333333     0          
O        O      0.820942222222     0.975217777778     0.198663333333     0          
O        O      0.954688888889     0.810677777778     0.304373333333     0          
O        O      0.673375555556     0.884201111111     0.292643333333     0          
O        O      0.932275555556     0.864551111111     0.301183333333     0          
O        O      0.680388888889     0.901224444444     0.416053333333     0          
O        O      0.700455555556     0.966211111111     0.392973333333     0          
O        O      0.958445555556     0.916891111111     0.402853333333     0          
O        O      0.698718888889     0.967947777778     0.228143333333     0          
O        O      0.956258888889     0.912517777778     0.232693333333     0          
O        O      0.670468888889     0.899247777778     0.207493333333     0          
O        O      0.700075555556     0.966591111111     0.470973333333     0          
O        O      0.956835555556     0.913671111111     0.468003333333     0          
O        O      0.855988888889     0.810677777778     0.304373333333     0          
O        O      0.782465555556     0.789174444444     0.292643333333     0          
O        O      0.802115555556     0.734391111111     0.301183333333     0          
O        O      0.765442222222     0.779164444444     0.416053333333     0          
O        O      0.700455555556     0.734244444444     0.392973333333     0          
O        O      0.749775555556     0.708221111111     0.402853333333     0          
O        O      0.698718888889     0.730771111111     0.228143333333     0          
O        O      0.754148888889     0.710407777778     0.232693333333     0          
O        O      0.767418888889     0.771221111111     0.207493333333     0          
O        O      0.700075555556     0.733484444444     0.470973333333     0          
O        O      0.752995555556     0.709831111111     0.468003333333     0          
O        O      0.758272222222     0.758271111111     0.500003333333     0          
O        O      0.855988888889     0.711977777778     0.304373333333     0          
O        O      0.877492222222     0.993291111111     0.292643333333     0          
O        O      0.932275555556     0.734391111111     0.301183333333     0          
O        O      0.887502222222     0.986277777778     0.416053333333     0          
O        O      0.932422222222     0.966211111111     0.392973333333     0          
O        O      0.958445555556     0.708221111111     0.402853333333     0          
O        O      0.935895555556     0.967947777778     0.228143333333     0          
O        O      0.956258888889     0.710407777778     0.232693333333     0          
O        O      0.895445555556     0.996197777778     0.207493333333     0          
O        O      0.933182222222     0.966591111111     0.470973333333     0          
O        O      0.956835555556     0.709831111111     0.468003333333     0          
O        O      0.782465555556     0.993291111111     0.292643333333     0          
O        O      0.797708888889     0.686597777778     0.333333333333     0          
O        O      0.765442222222     0.986277777778     0.416053333333     0          
O        O      0.767418888889     0.996197777778     0.207493333333     0          
O        O      0.673375555556     0.789174444444     0.292643333333     0          
O        O      0.980068888889     0.777777777778     0.333333333333     0          
O        O      0.680388888889     0.779164444444     0.416053333333     0          
O        O      0.670468888889     0.771221111111     0.207493333333     0          
O        O      0.877492222222     0.884201111111     0.292643333333     0          
O        O      0.888888888889     0.868957777778     0.333333333333     0          
O        O      0.887502222222     0.901224444444     0.416053333333     0          
O        O      0.895445555556     0.899247777778     0.207493333333     0          
O        O      0.908395555556     0.908394444444     0.500003333333     0          
O        O      0.771068888889     0.671354444444     0.374023333333     0          
O        O      0.764055555556     0.987664444444     0.250613333333     0          
O        O      0.773975555556     0.989641111111     0.459173333333     0          
O        O      0.995312222222     0.766381111111     0.374023333333     0          
O        O      0.679002222222     0.776391111111     0.250613333333     0          
O        O      0.677025555556     0.784334444444     0.459173333333     0          
O        O      0.900285555556     0.895597777778     0.374023333333     0          
O        O      0.890275555556     0.902611111111     0.250613333333     0          
O        O      0.882332222222     0.892691111111     0.459173333333     0          
O        O      0.810677777778     0.954688888889     0.695626666667     0          
O        O      0.884201111111     0.673375555556     0.707356666667     0          
O        O      0.868957777778     0.980068888889     0.666666666667     0          
O        O      0.864551111111     0.932275555556     0.698816666667     0          
O        O      0.901224444444     0.680388888889     0.583946666667     0          
O        O      0.966211111111     0.700455555556     0.607026666667     0          
O        O      0.916891111111     0.958445555556     0.597146666667     0          
O        O      0.967947777778     0.698718888889     0.771856666667     0          
O        O      0.912517777778     0.956258888889     0.767306666667     0          
O        O      0.899247777778     0.670468888889     0.792506666667     0          
O        O      0.966591111111     0.700075555556     0.529026666667     0          
O        O      0.913671111111     0.956835555556     0.531996666667     0          
O        O      0.711977777778     0.855988888889     0.695626666667     0          
O        O      0.993291111111     0.877492222222     0.707356666667     0          
O        O      0.686597777778     0.888888888889     0.666666666667     0          
O        O      0.734391111111     0.932275555556     0.698816666667     0          
O        O      0.986277777778     0.887502222222     0.583946666667     0          
O        O      0.966211111111     0.932422222222     0.607026666667     0          
O        O      0.708221111111     0.958445555556     0.597146666667     0          
O        O      0.967947777778     0.935895555556     0.771856666667     0          
O        O      0.710407777778     0.956258888889     0.767306666667     0          
O        O      0.996197777778     0.895445555556     0.792506666667     0          
O        O      0.966591111111     0.933182222222     0.529026666667     0          
O        O      0.709831111111     0.956835555556     0.531996666667     0          
O        O      0.810677777778     0.855988888889     0.695626666667     0          
O        O      0.789174444444     0.782465555556     0.707356666667     0          
O        O      0.777777777778     0.797708888889     0.666666666667     0          
O        O      0.734391111111     0.802115555556     0.698816666667     0          
O        O      0.779164444444     0.765442222222     0.583946666667     0          
O        O      0.734244444444     0.700455555556     0.607026666667     0          
O        O      0.708221111111     0.749775555556     0.597146666667     0          
O        O      0.730771111111     0.698718888889     0.771856666667     0          
O        O      0.710407777778     0.754148888889     0.767306666667     0          
O        O      0.771221111111     0.767418888889     0.792506666667     0          
O        O      0.733484444444     0.700075555556     0.529026666667     0          
O        O      0.709831111111     0.752995555556     0.531996666667     0          
O        O      0.843577777778     0.921788888889     0.637706666667     0          
O        O      0.895597777778     0.995312222222     0.625976666667     0          
O        O      0.821164444444     0.975662222222     0.634516666667     0          
O        O      0.902611111111     0.679002222222     0.749386666667     0          
O        O      0.922677777778     0.743988888889     0.726306666667     0          
O        O      0.847334444444     0.694668888889     0.736186666667     0          
O        O      0.920941111111     0.745725555556     0.561476666667     0          
O        O      0.845147777778     0.690295555556     0.566026666667     0          
O        O      0.892691111111     0.677025555556     0.540826666667     0          
O        O      0.922297777778     0.744368888889     0.804306666667     0          
O        O      0.845724444444     0.691448888889     0.801336666667     0          
O        O      0.744877777778     0.921788888889     0.637706666667     0          
O        O      0.671354444444     0.900285555556     0.625976666667     0          
O        O      0.691004444444     0.845502222222     0.634516666667     0          
O        O      0.987664444444     0.890275555556     0.749386666667     0          
O        O      0.922677777778     0.845355555556     0.726306666667     0          
O        O      0.971997777778     0.819332222222     0.736186666667     0          
O        O      0.920941111111     0.841882222222     0.561476666667     0          
O        O      0.976371111111     0.821518888889     0.566026666667     0          
O        O      0.989641111111     0.882332222222     0.540826666667     0          
O        O      0.922297777778     0.844595555556     0.804306666667     0          
O        O      0.975217777778     0.820942222222     0.801336666667     0          
O        O      0.744877777778     0.823088888889     0.637706666667     0          
O        O      0.766381111111     0.771068888889     0.625976666667     0          
O        O      0.821164444444     0.845502222222     0.634516666667     0          
O        O      0.776391111111     0.764055555556     0.749386666667     0          
O        O      0.821311111111     0.743988888889     0.726306666667     0          
O        O      0.847334444444     0.819332222222     0.736186666667     0          
O        O      0.824784444444     0.745725555556     0.561476666667     0          
O        O      0.845147777778     0.821518888889     0.566026666667     0          
O        O      0.784334444444     0.773975555556     0.540826666667     0          
O        O      0.822071111111     0.744368888889     0.804306666667     0          
O        O      0.845724444444     0.820942222222     0.801336666667     0          
O        O      0.671354444444     0.771068888889     0.625976666667     0          
O        O      0.686597777778     0.797708888889     0.666666666667     0          
O        O      0.987664444444     0.764055555556     0.749386666667     0          
O        O      0.989641111111     0.773975555556     0.540826666667     0          
O        O      0.895597777778     0.900285555556     0.625976666667     0          
O        O      0.868957777778     0.888888888889     0.666666666667     0          
O        O      0.902611111111     0.890275555556     0.749386666667     0          
O        O      0.892691111111     0.882332222222     0.540826666667     0          
O        O      0.766381111111     0.995312222222     0.625976666667     0          
O        O      0.777777777778     0.980068888889     0.666666666667     0          
O        O      0.776391111111     0.679002222222     0.749386666667     0          
O        O      0.784334444444     0.677025555556     0.540826666667     0          
O        O      0.993291111111     0.782465555556     0.707356666667     0          
O        O      0.986277777778     0.765442222222     0.583946666667     0          
O        O      0.996197777778     0.767418888889     0.792506666667     0          
O        O      0.884201111111     0.877492222222     0.707356666667     0          
O        O      0.901224444444     0.887502222222     0.583946666667     0          
O        O      0.899247777778     0.895445555556     0.792506666667     0          
O        O      0.789174444444     0.673375555556     0.707356666667     0          
O        O      0.779164444444     0.680388888889     0.583946666667     0          
O        O      0.771221111111     0.670468888889     0.792506666667     0          


