data_zeolite

_audit_creation_method RASPA-1.0
_audit_creation_date 2021-6-6
_audit_author_name ''

_cell_length_a    40.2874
_cell_length_b    28.1446
_cell_length_c    37.5669
_cell_angle_alpha 90
_cell_angle_beta  115.651
_cell_angle_gamma 90
_cell_volume      38398.1

_symmetry_cell_setting          monoclinic
_symmetry_space_group_name_Hall 'P 1'
_symmetry_space_group_name_H-M  'P 1'
_symmetry_Int_Tables_number     1

_symmetry_equiv_pos_as_xyz 'x,y,z'

loop_
_atom_site_label
_atom_site_type_symbol
_atom_site_fract_x
_atom_site_fract_y
_atom_site_fract_z
_atom_site_charge
O        O      0.413500000000     0.453100000000     0.248333333333     0          
O        O      0.434400000000     0.365450000000     0.242766666667     0          
O        O      0.421850000000     0.390500000000     0.303000000000     0          
O        O      0.366600000000     0.382200000000     0.232700000000     0          
O        O      0.196600000000     0.122800000000     0.045066666667     0          
O        O      0.198700000000     0.046400000000     0.085933333333     0          
O        O      0.203200000000     0.130800000000     0.117566666667     0          
O        O      0.258350000000     0.099100000000     0.105100000000     0          
O        O      0.086950000000     0.453650000000     0.316566666667     0          
O        O      0.125000000000     0.375000000000     0.000000000000     0          
O        O      0.086950000000     0.453300000000     0.214833333333     0          
O        O      0.068900000000     0.386750000000     0.159900000000     0          
O        O      0.067250000000     0.296850000000     0.138966666667     0          
O        O      0.352800000000     0.000000000000     0.105300000000     0          
O        O      0.378350000000     0.000000000000     0.051433333333     0          
O        O      0.396650000000     0.250000000000     0.095600000000     0          
O        O      0.372850000000     0.250000000000     0.150700000000     0          
O        O      0.398150000000     0.250000000000     0.026066666667     0          
T        Si     0.409000000000     0.397800000000     0.256400000000     0          
T        Si     0.214250000000     0.099500000000     0.088466666667     0          
T        Si     0.085950000000     0.397900000000     0.325500000000     0          
T        Si     0.080150000000     0.397350000000     0.205800000000     0          
T        Si     0.052600000000     0.349650000000     0.123766666667     0          
T        Si     0.389400000000     0.000000000000     0.098066666667     0          
T        Si     0.110650000000     0.000000000000     0.103800000000     0          
T        Si     0.172750000000     0.000000000000     0.073100000000     0          
T        Si     0.111150000000     0.000000000000     0.318633333333     0          
T        Si     0.159050000000     0.000000000000     0.192233333333     0          
O        O      0.086500000000     0.453100000000     0.085000000000     0          
O        O      0.065600000000     0.365450000000     0.090566666667     0          
O        O      0.078150000000     0.390500000000     0.030333333333     0          
O        O      0.133400000000     0.382200000000     0.100633333333     0          
O        O      0.303400000000     0.122800000000     0.288266666667     0          
O        O      0.301300000000     0.046400000000     0.247400000000     0          
O        O      0.296800000000     0.130800000000     0.215766666667     0          
O        O      0.241650000000     0.099100000000     0.228233333333     0          
O        O      0.413050000000     0.453650000000     0.016766666667     0          
O        O      0.375000000000     0.375000000000     0.000000000000     0          
O        O      0.413050000000     0.453300000000     0.118500000000     0          
O        O      0.431100000000     0.386750000000     0.173433333333     0          
O        O      0.432750000000     0.296850000000     0.194366666667     0          
O        O      0.147200000000     0.000000000000     0.228033333333     0          
O        O      0.121650000000     0.000000000000     0.281900000000     0          
O        O      0.103350000000     0.250000000000     0.237733333333     0          
O        O      0.127150000000     0.250000000000     0.182633333333     0          
O        O      0.101850000000     0.250000000000     0.307266666667     0          
T        Si     0.091000000000     0.397800000000     0.076933333333     0          
T        Si     0.285750000000     0.099500000000     0.244866666667     0          
T        Si     0.414050000000     0.397900000000     0.007833333333     0          
T        Si     0.419850000000     0.397350000000     0.127533333333     0          
T        Si     0.447400000000     0.349650000000     0.209566666667     0          
T        Si     0.110600000000     0.000000000000     0.235266666667     0          
T        Si     0.389350000000     0.000000000000     0.229533333333     0          
T        Si     0.327250000000     0.000000000000     0.260233333333     0          
T        Si     0.388850000000     0.000000000000     0.014700000000     0          
T        Si     0.340950000000     0.000000000000     0.141100000000     0          
O        O      0.086500000000     0.046900000000     0.085000000000     0          
O        O      0.065600000000     0.134550000000     0.090566666667     0          
O        O      0.078150000000     0.109500000000     0.030333333333     0          
O        O      0.133400000000     0.117800000000     0.100633333333     0          
O        O      0.303400000000     0.377200000000     0.288266666667     0          
O        O      0.301300000000     0.453600000000     0.247400000000     0          
O        O      0.296800000000     0.369200000000     0.215766666667     0          
O        O      0.241650000000     0.400900000000     0.228233333333     0          
O        O      0.413050000000     0.046350000000     0.016766666667     0          
O        O      0.375000000000     0.125000000000     0.000000000000     0          
O        O      0.413050000000     0.046700000000     0.118500000000     0          
O        O      0.431100000000     0.113250000000     0.173433333333     0          
O        O      0.432750000000     0.203150000000     0.194366666667     0          
T        Si     0.091000000000     0.102200000000     0.076933333333     0          
T        Si     0.285750000000     0.400500000000     0.244866666667     0          
T        Si     0.414050000000     0.102100000000     0.007833333333     0          
T        Si     0.419850000000     0.102650000000     0.127533333333     0          
T        Si     0.447400000000     0.150350000000     0.209566666667     0          
O        O      0.413500000000     0.046900000000     0.248333333333     0          
O        O      0.434400000000     0.134550000000     0.242766666667     0          
O        O      0.421850000000     0.109500000000     0.303000000000     0          
O        O      0.366600000000     0.117800000000     0.232700000000     0          
O        O      0.196600000000     0.377200000000     0.045066666667     0          
O        O      0.198700000000     0.453600000000     0.085933333333     0          
O        O      0.203200000000     0.369200000000     0.117566666667     0          
O        O      0.258350000000     0.400900000000     0.105100000000     0          
O        O      0.086950000000     0.046350000000     0.316566666667     0          
O        O      0.125000000000     0.125000000000     0.000000000000     0          
O        O      0.086950000000     0.046700000000     0.214833333333     0          
O        O      0.068900000000     0.113250000000     0.159900000000     0          
O        O      0.067250000000     0.203150000000     0.138966666667     0          
T        Si     0.409000000000     0.102200000000     0.256400000000     0          
T        Si     0.214250000000     0.400500000000     0.088466666667     0          
T        Si     0.085950000000     0.102100000000     0.325500000000     0          
T        Si     0.080150000000     0.102650000000     0.205800000000     0          
T        Si     0.052600000000     0.150350000000     0.123766666667     0          
O        O      0.163500000000     0.203100000000     0.248333333333     0          
O        O      0.184400000000     0.115450000000     0.242766666667     0          
O        O      0.171850000000     0.140500000000     0.303000000000     0          
O        O      0.116600000000     0.132200000000     0.232700000000     0          
O        O      0.446600000000     0.372800000000     0.045066666667     0          
O        O      0.448700000000     0.296400000000     0.085933333333     0          
O        O      0.453200000000     0.380800000000     0.117566666667     0          
O        O      0.008350000000     0.349100000000     0.105100000000     0          
O        O      0.336950000000     0.203650000000     0.316566666667     0          
O        O      0.336950000000     0.203300000000     0.214833333333     0          
O        O      0.318900000000     0.136750000000     0.159900000000     0          
O        O      0.317250000000     0.046850000000     0.138966666667     0          
O        O      0.102800000000     0.250000000000     0.105300000000     0          
O        O      0.128350000000     0.250000000000     0.051433333333     0          
O        O      0.146650000000     0.000000000000     0.095600000000     0          
O        O      0.122850000000     0.000000000000     0.150700000000     0          
O        O      0.148150000000     0.000000000000     0.026066666667     0          
T        Si     0.159000000000     0.147800000000     0.256400000000     0          
T        Si     0.464250000000     0.349500000000     0.088466666667     0          
T        Si     0.335950000000     0.147900000000     0.325500000000     0          
T        Si     0.330150000000     0.147350000000     0.205800000000     0          
T        Si     0.302600000000     0.099650000000     0.123766666667     0          
T        Si     0.139400000000     0.250000000000     0.098066666667     0          
T        Si     0.360650000000     0.250000000000     0.103800000000     0          
T        Si     0.422750000000     0.250000000000     0.073100000000     0          
T        Si     0.361150000000     0.250000000000     0.318633333333     0          
T        Si     0.409050000000     0.250000000000     0.192233333333     0          
O        O      0.336500000000     0.203100000000     0.085000000000     0          
O        O      0.315600000000     0.115450000000     0.090566666667     0          
O        O      0.328150000000     0.140500000000     0.030333333333     0          
O        O      0.383400000000     0.132200000000     0.100633333333     0          
O        O      0.053400000000     0.372800000000     0.288266666667     0          
O        O      0.051300000000     0.296400000000     0.247400000000     0          
O        O      0.046800000000     0.380800000000     0.215766666667     0          
O        O      0.491650000000     0.349100000000     0.228233333333     0          
O        O      0.163050000000     0.203650000000     0.016766666667     0          
O        O      0.163050000000     0.203300000000     0.118500000000     0          
O        O      0.181100000000     0.136750000000     0.173433333333     0          
O        O      0.182750000000     0.046850000000     0.194366666667     0          
O        O      0.397200000000     0.250000000000     0.228033333333     0          
O        O      0.371650000000     0.250000000000     0.281900000000     0          
O        O      0.353350000000     0.000000000000     0.237733333333     0          
O        O      0.377150000000     0.000000000000     0.182633333333     0          
O        O      0.351850000000     0.000000000000     0.307266666667     0          
T        Si     0.341000000000     0.147800000000     0.076933333333     0          
T        Si     0.035750000000     0.349500000000     0.244866666667     0          
T        Si     0.164050000000     0.147900000000     0.007833333333     0          
T        Si     0.169850000000     0.147350000000     0.127533333333     0          
T        Si     0.197400000000     0.099650000000     0.209566666667     0          
T        Si     0.360600000000     0.250000000000     0.235266666667     0          
T        Si     0.139350000000     0.250000000000     0.229533333333     0          
T        Si     0.077250000000     0.250000000000     0.260233333333     0          
T        Si     0.138850000000     0.250000000000     0.014700000000     0          
T        Si     0.090950000000     0.250000000000     0.141100000000     0          
O        O      0.336500000000     0.296900000000     0.085000000000     0          
O        O      0.315600000000     0.384550000000     0.090566666667     0          
O        O      0.328150000000     0.359500000000     0.030333333333     0          
O        O      0.383400000000     0.367800000000     0.100633333333     0          
O        O      0.053400000000     0.127200000000     0.288266666667     0          
O        O      0.051300000000     0.203600000000     0.247400000000     0          
O        O      0.046800000000     0.119200000000     0.215766666667     0          
O        O      0.491650000000     0.150900000000     0.228233333333     0          
O        O      0.163050000000     0.296350000000     0.016766666667     0          
O        O      0.163050000000     0.296700000000     0.118500000000     0          
O        O      0.181100000000     0.363250000000     0.173433333333     0          
O        O      0.182750000000     0.453150000000     0.194366666667     0          
T        Si     0.341000000000     0.352200000000     0.076933333333     0          
T        Si     0.035750000000     0.150500000000     0.244866666667     0          
T        Si     0.164050000000     0.352100000000     0.007833333333     0          
T        Si     0.169850000000     0.352650000000     0.127533333333     0          
T        Si     0.197400000000     0.400350000000     0.209566666667     0          
O        O      0.163500000000     0.296900000000     0.248333333333     0          
O        O      0.184400000000     0.384550000000     0.242766666667     0          
O        O      0.171850000000     0.359500000000     0.303000000000     0          
O        O      0.116600000000     0.367800000000     0.232700000000     0          
O        O      0.446600000000     0.127200000000     0.045066666667     0          
O        O      0.448700000000     0.203600000000     0.085933333333     0          
O        O      0.453200000000     0.119200000000     0.117566666667     0          
O        O      0.008350000000     0.150900000000     0.105100000000     0          
O        O      0.336950000000     0.296350000000     0.316566666667     0          
O        O      0.336950000000     0.296700000000     0.214833333333     0          
O        O      0.318900000000     0.363250000000     0.159900000000     0          
O        O      0.317250000000     0.453150000000     0.138966666667     0          
T        Si     0.159000000000     0.352200000000     0.256400000000     0          
T        Si     0.464250000000     0.150500000000     0.088466666667     0          
T        Si     0.335950000000     0.352100000000     0.325500000000     0          
T        Si     0.330150000000     0.352650000000     0.205800000000     0          
T        Si     0.302600000000     0.400350000000     0.123766666667     0          
O        O      0.413500000000     0.453100000000     0.581666666667     0          
O        O      0.434400000000     0.365450000000     0.576100000000     0          
O        O      0.421850000000     0.390500000000     0.636333333333     0          
O        O      0.366600000000     0.382200000000     0.566033333333     0          
O        O      0.196600000000     0.122800000000     0.378400000000     0          
O        O      0.198700000000     0.046400000000     0.419266666667     0          
O        O      0.203200000000     0.130800000000     0.450900000000     0          
O        O      0.258350000000     0.099100000000     0.438433333333     0          
O        O      0.086950000000     0.453650000000     0.649900000000     0          
O        O      0.125000000000     0.375000000000     0.333333333333     0          
O        O      0.086950000000     0.453300000000     0.548166666667     0          
O        O      0.068900000000     0.386750000000     0.493233333333     0          
O        O      0.067250000000     0.296850000000     0.472300000000     0          
O        O      0.352800000000     0.000000000000     0.438633333333     0          
O        O      0.378350000000     0.000000000000     0.384766666667     0          
O        O      0.396650000000     0.250000000000     0.428933333333     0          
O        O      0.372850000000     0.250000000000     0.484033333333     0          
O        O      0.398150000000     0.250000000000     0.359400000000     0          
T        Si     0.409000000000     0.397800000000     0.589733333333     0          
T        Si     0.214250000000     0.099500000000     0.421800000000     0          
T        Si     0.085950000000     0.397900000000     0.658833333333     0          
T        Si     0.080150000000     0.397350000000     0.539133333333     0          
T        Si     0.052600000000     0.349650000000     0.457100000000     0          
T        Si     0.389400000000     0.000000000000     0.431400000000     0          
T        Si     0.110650000000     0.000000000000     0.437133333333     0          
T        Si     0.172750000000     0.000000000000     0.406433333333     0          
T        Si     0.111150000000     0.000000000000     0.651966666667     0          
T        Si     0.159050000000     0.000000000000     0.525566666667     0          
O        O      0.086500000000     0.453100000000     0.418333333333     0          
O        O      0.065600000000     0.365450000000     0.423900000000     0          
O        O      0.078150000000     0.390500000000     0.363666666667     0          
O        O      0.133400000000     0.382200000000     0.433966666667     0          
O        O      0.303400000000     0.122800000000     0.621600000000     0          
O        O      0.301300000000     0.046400000000     0.580733333333     0          
O        O      0.296800000000     0.130800000000     0.549100000000     0          
O        O      0.241650000000     0.099100000000     0.561566666667     0          
O        O      0.413050000000     0.453650000000     0.350100000000     0          
O        O      0.375000000000     0.375000000000     0.333333333333     0          
O        O      0.413050000000     0.453300000000     0.451833333333     0          
O        O      0.431100000000     0.386750000000     0.506766666667     0          
O        O      0.432750000000     0.296850000000     0.527700000000     0          
O        O      0.147200000000     0.000000000000     0.561366666667     0          
O        O      0.121650000000     0.000000000000     0.615233333333     0          
O        O      0.103350000000     0.250000000000     0.571066666667     0          
O        O      0.127150000000     0.250000000000     0.515966666667     0          
O        O      0.101850000000     0.250000000000     0.640600000000     0          
T        Si     0.091000000000     0.397800000000     0.410266666667     0          
T        Si     0.285750000000     0.099500000000     0.578200000000     0          
T        Si     0.414050000000     0.397900000000     0.341166666667     0          
T        Si     0.419850000000     0.397350000000     0.460866666667     0          
T        Si     0.447400000000     0.349650000000     0.542900000000     0          
T        Si     0.110600000000     0.000000000000     0.568600000000     0          
T        Si     0.389350000000     0.000000000000     0.562866666667     0          
T        Si     0.327250000000     0.000000000000     0.593566666667     0          
T        Si     0.388850000000     0.000000000000     0.348033333333     0          
T        Si     0.340950000000     0.000000000000     0.474433333333     0          
O        O      0.086500000000     0.046900000000     0.418333333333     0          
O        O      0.065600000000     0.134550000000     0.423900000000     0          
O        O      0.078150000000     0.109500000000     0.363666666667     0          
O        O      0.133400000000     0.117800000000     0.433966666667     0          
O        O      0.303400000000     0.377200000000     0.621600000000     0          
O        O      0.301300000000     0.453600000000     0.580733333333     0          
O        O      0.296800000000     0.369200000000     0.549100000000     0          
O        O      0.241650000000     0.400900000000     0.561566666667     0          
O        O      0.413050000000     0.046350000000     0.350100000000     0          
O        O      0.375000000000     0.125000000000     0.333333333333     0          
O        O      0.413050000000     0.046700000000     0.451833333333     0          
O        O      0.431100000000     0.113250000000     0.506766666667     0          
O        O      0.432750000000     0.203150000000     0.527700000000     0          
T        Si     0.091000000000     0.102200000000     0.410266666667     0          
T        Si     0.285750000000     0.400500000000     0.578200000000     0          
T        Si     0.414050000000     0.102100000000     0.341166666667     0          
T        Si     0.419850000000     0.102650000000     0.460866666667     0          
T        Si     0.447400000000     0.150350000000     0.542900000000     0          
O        O      0.413500000000     0.046900000000     0.581666666667     0          
O        O      0.434400000000     0.134550000000     0.576100000000     0          
O        O      0.421850000000     0.109500000000     0.636333333333     0          
O        O      0.366600000000     0.117800000000     0.566033333333     0          
O        O      0.196600000000     0.377200000000     0.378400000000     0          
O        O      0.198700000000     0.453600000000     0.419266666667     0          
O        O      0.203200000000     0.369200000000     0.450900000000     0          
O        O      0.258350000000     0.400900000000     0.438433333333     0          
O        O      0.086950000000     0.046350000000     0.649900000000     0          
O        O      0.125000000000     0.125000000000     0.333333333333     0          
O        O      0.086950000000     0.046700000000     0.548166666667     0          
O        O      0.068900000000     0.113250000000     0.493233333333     0          
O        O      0.067250000000     0.203150000000     0.472300000000     0          
T        Si     0.409000000000     0.102200000000     0.589733333333     0          
T        Si     0.214250000000     0.400500000000     0.421800000000     0          
T        Si     0.085950000000     0.102100000000     0.658833333333     0          
T        Si     0.080150000000     0.102650000000     0.539133333333     0          
T        Si     0.052600000000     0.150350000000     0.457100000000     0          
O        O      0.163500000000     0.203100000000     0.581666666667     0          
O        O      0.184400000000     0.115450000000     0.576100000000     0          
O        O      0.171850000000     0.140500000000     0.636333333333     0          
O        O      0.116600000000     0.132200000000     0.566033333333     0          
O        O      0.446600000000     0.372800000000     0.378400000000     0          
O        O      0.448700000000     0.296400000000     0.419266666667     0          
O        O      0.453200000000     0.380800000000     0.450900000000     0          
O        O      0.008350000000     0.349100000000     0.438433333333     0          
O        O      0.336950000000     0.203650000000     0.649900000000     0          
O        O      0.336950000000     0.203300000000     0.548166666667     0          
O        O      0.318900000000     0.136750000000     0.493233333333     0          
O        O      0.317250000000     0.046850000000     0.472300000000     0          
O        O      0.102800000000     0.250000000000     0.438633333333     0          
O        O      0.128350000000     0.250000000000     0.384766666667     0          
O        O      0.146650000000     0.000000000000     0.428933333333     0          
O        O      0.122850000000     0.000000000000     0.484033333333     0          
O        O      0.148150000000     0.000000000000     0.359400000000     0          
T        Si     0.159000000000     0.147800000000     0.589733333333     0          
T        Si     0.464250000000     0.349500000000     0.421800000000     0          
T        Si     0.335950000000     0.147900000000     0.658833333333     0          
T        Si     0.330150000000     0.147350000000     0.539133333333     0          
T        Si     0.302600000000     0.099650000000     0.457100000000     0          
T        Si     0.139400000000     0.250000000000     0.431400000000     0          
T        Si     0.360650000000     0.250000000000     0.437133333333     0          
T        Si     0.422750000000     0.250000000000     0.406433333333     0          
T        Si     0.361150000000     0.250000000000     0.651966666667     0          
T        Si     0.409050000000     0.250000000000     0.525566666667     0          
O        O      0.336500000000     0.203100000000     0.418333333333     0          
O        O      0.315600000000     0.115450000000     0.423900000000     0          
O        O      0.328150000000     0.140500000000     0.363666666667     0          
O        O      0.383400000000     0.132200000000     0.433966666667     0          
O        O      0.053400000000     0.372800000000     0.621600000000     0          
O        O      0.051300000000     0.296400000000     0.580733333333     0          
O        O      0.046800000000     0.380800000000     0.549100000000     0          
O        O      0.491650000000     0.349100000000     0.561566666667     0          
O        O      0.163050000000     0.203650000000     0.350100000000     0          
O        O      0.163050000000     0.203300000000     0.451833333333     0          
O        O      0.181100000000     0.136750000000     0.506766666667     0          
O        O      0.182750000000     0.046850000000     0.527700000000     0          
O        O      0.397200000000     0.250000000000     0.561366666667     0          
O        O      0.371650000000     0.250000000000     0.615233333333     0          
O        O      0.353350000000     0.000000000000     0.571066666667     0          
O        O      0.377150000000     0.000000000000     0.515966666667     0          
O        O      0.351850000000     0.000000000000     0.640600000000     0          
T        Si     0.341000000000     0.147800000000     0.410266666667     0          
T        Si     0.035750000000     0.349500000000     0.578200000000     0          
T        Si     0.164050000000     0.147900000000     0.341166666667     0          
T        Si     0.169850000000     0.147350000000     0.460866666667     0          
T        Si     0.197400000000     0.099650000000     0.542900000000     0          
T        Si     0.360600000000     0.250000000000     0.568600000000     0          
T        Si     0.139350000000     0.250000000000     0.562866666667     0          
T        Si     0.077250000000     0.250000000000     0.593566666667     0          
T        Si     0.138850000000     0.250000000000     0.348033333333     0          
T        Si     0.090950000000     0.250000000000     0.474433333333     0          
O        O      0.336500000000     0.296900000000     0.418333333333     0          
O        O      0.315600000000     0.384550000000     0.423900000000     0          
O        O      0.328150000000     0.359500000000     0.363666666667     0          
O        O      0.383400000000     0.367800000000     0.433966666667     0          
O        O      0.053400000000     0.127200000000     0.621600000000     0          
O        O      0.051300000000     0.203600000000     0.580733333333     0          
O        O      0.046800000000     0.119200000000     0.549100000000     0          
O        O      0.491650000000     0.150900000000     0.561566666667     0          
O        O      0.163050000000     0.296350000000     0.350100000000     0          
O        O      0.163050000000     0.296700000000     0.451833333333     0          
O        O      0.181100000000     0.363250000000     0.506766666667     0          
O        O      0.182750000000     0.453150000000     0.527700000000     0          
T        Si     0.341000000000     0.352200000000     0.410266666667     0          
T        Si     0.035750000000     0.150500000000     0.578200000000     0          
T        Si     0.164050000000     0.352100000000     0.341166666667     0          
T        Si     0.169850000000     0.352650000000     0.460866666667     0          
T        Si     0.197400000000     0.400350000000     0.542900000000     0          
O        O      0.163500000000     0.296900000000     0.581666666667     0          
O        O      0.184400000000     0.384550000000     0.576100000000     0          
O        O      0.171850000000     0.359500000000     0.636333333333     0          
O        O      0.116600000000     0.367800000000     0.566033333333     0          
O        O      0.446600000000     0.127200000000     0.378400000000     0          
O        O      0.448700000000     0.203600000000     0.419266666667     0          
O        O      0.453200000000     0.119200000000     0.450900000000     0          
O        O      0.008350000000     0.150900000000     0.438433333333     0          
O        O      0.336950000000     0.296350000000     0.649900000000     0          
O        O      0.336950000000     0.296700000000     0.548166666667     0          
O        O      0.318900000000     0.363250000000     0.493233333333     0          
O        O      0.317250000000     0.453150000000     0.472300000000     0          
T        Si     0.159000000000     0.352200000000     0.589733333333     0          
T        Si     0.464250000000     0.150500000000     0.421800000000     0          
T        Si     0.335950000000     0.352100000000     0.658833333333     0          
T        Si     0.330150000000     0.352650000000     0.539133333333     0          
T        Si     0.302600000000     0.400350000000     0.457100000000     0          
O        O      0.413500000000     0.453100000000     0.915000000000     0          
O        O      0.434400000000     0.365450000000     0.909433333333     0          
O        O      0.421850000000     0.390500000000     0.969666666667     0          
O        O      0.366600000000     0.382200000000     0.899366666667     0          
O        O      0.196600000000     0.122800000000     0.711733333333     0          
O        O      0.198700000000     0.046400000000     0.752600000000     0          
O        O      0.203200000000     0.130800000000     0.784233333333     0          
O        O      0.258350000000     0.099100000000     0.771766666667     0          
O        O      0.086950000000     0.453650000000     0.983233333333     0          
O        O      0.125000000000     0.375000000000     0.666666666667     0          
O        O      0.086950000000     0.453300000000     0.881500000000     0          
O        O      0.068900000000     0.386750000000     0.826566666667     0          
O        O      0.067250000000     0.296850000000     0.805633333333     0          
O        O      0.352800000000     0.000000000000     0.771966666667     0          
O        O      0.378350000000     0.000000000000     0.718100000000     0          
O        O      0.396650000000     0.250000000000     0.762266666667     0          
O        O      0.372850000000     0.250000000000     0.817366666667     0          
O        O      0.398150000000     0.250000000000     0.692733333333     0          
T        Si     0.409000000000     0.397800000000     0.923066666667     0          
T        Si     0.214250000000     0.099500000000     0.755133333333     0          
T        Si     0.085950000000     0.397900000000     0.992166666667     0          
T        Si     0.080150000000     0.397350000000     0.872466666667     0          
T        Si     0.052600000000     0.349650000000     0.790433333333     0          
T        Si     0.389400000000     0.000000000000     0.764733333333     0          
T        Si     0.110650000000     0.000000000000     0.770466666667     0          
T        Si     0.172750000000     0.000000000000     0.739766666667     0          
T        Si     0.111150000000     0.000000000000     0.985300000000     0          
T        Si     0.159050000000     0.000000000000     0.858900000000     0          
O        O      0.086500000000     0.453100000000     0.751666666667     0          
O        O      0.065600000000     0.365450000000     0.757233333333     0          
O        O      0.078150000000     0.390500000000     0.697000000000     0          
O        O      0.133400000000     0.382200000000     0.767300000000     0          
O        O      0.303400000000     0.122800000000     0.954933333333     0          
O        O      0.301300000000     0.046400000000     0.914066666667     0          
O        O      0.296800000000     0.130800000000     0.882433333333     0          
O        O      0.241650000000     0.099100000000     0.894900000000     0          
O        O      0.413050000000     0.453650000000     0.683433333333     0          
O        O      0.375000000000     0.375000000000     0.666666666667     0          
O        O      0.413050000000     0.453300000000     0.785166666667     0          
O        O      0.431100000000     0.386750000000     0.840100000000     0          
O        O      0.432750000000     0.296850000000     0.861033333333     0          
O        O      0.147200000000     0.000000000000     0.894700000000     0          
O        O      0.121650000000     0.000000000000     0.948566666667     0          
O        O      0.103350000000     0.250000000000     0.904400000000     0          
O        O      0.127150000000     0.250000000000     0.849300000000     0          
O        O      0.101850000000     0.250000000000     0.973933333333     0          
T        Si     0.091000000000     0.397800000000     0.743600000000     0          
T        Si     0.285750000000     0.099500000000     0.911533333333     0          
T        Si     0.414050000000     0.397900000000     0.674500000000     0          
T        Si     0.419850000000     0.397350000000     0.794200000000     0          
T        Si     0.447400000000     0.349650000000     0.876233333333     0          
T        Si     0.110600000000     0.000000000000     0.901933333333     0          
T        Si     0.389350000000     0.000000000000     0.896200000000     0          
T        Si     0.327250000000     0.000000000000     0.926900000000     0          
T        Si     0.388850000000     0.000000000000     0.681366666667     0          
T        Si     0.340950000000     0.000000000000     0.807766666667     0          
O        O      0.086500000000     0.046900000000     0.751666666667     0          
O        O      0.065600000000     0.134550000000     0.757233333333     0          
O        O      0.078150000000     0.109500000000     0.697000000000     0          
O        O      0.133400000000     0.117800000000     0.767300000000     0          
O        O      0.303400000000     0.377200000000     0.954933333333     0          
O        O      0.301300000000     0.453600000000     0.914066666667     0          
O        O      0.296800000000     0.369200000000     0.882433333333     0          
O        O      0.241650000000     0.400900000000     0.894900000000     0          
O        O      0.413050000000     0.046350000000     0.683433333333     0          
O        O      0.375000000000     0.125000000000     0.666666666667     0          
O        O      0.413050000000     0.046700000000     0.785166666667     0          
O        O      0.431100000000     0.113250000000     0.840100000000     0          
O        O      0.432750000000     0.203150000000     0.861033333333     0          
T        Si     0.091000000000     0.102200000000     0.743600000000     0          
T        Si     0.285750000000     0.400500000000     0.911533333333     0          
T        Si     0.414050000000     0.102100000000     0.674500000000     0          
T        Si     0.419850000000     0.102650000000     0.794200000000     0          
T        Si     0.447400000000     0.150350000000     0.876233333333     0          
O        O      0.413500000000     0.046900000000     0.915000000000     0          
O        O      0.434400000000     0.134550000000     0.909433333333     0          
O        O      0.421850000000     0.109500000000     0.969666666667     0          
O        O      0.366600000000     0.117800000000     0.899366666667     0          
O        O      0.196600000000     0.377200000000     0.711733333333     0          
O        O      0.198700000000     0.453600000000     0.752600000000     0          
O        O      0.203200000000     0.369200000000     0.784233333333     0          
O        O      0.258350000000     0.400900000000     0.771766666667     0          
O        O      0.086950000000     0.046350000000     0.983233333333     0          
O        O      0.125000000000     0.125000000000     0.666666666667     0          
O        O      0.086950000000     0.046700000000     0.881500000000     0          
O        O      0.068900000000     0.113250000000     0.826566666667     0          
O        O      0.067250000000     0.203150000000     0.805633333333     0          
T        Si     0.409000000000     0.102200000000     0.923066666667     0          
T        Si     0.214250000000     0.400500000000     0.755133333333     0          
T        Si     0.085950000000     0.102100000000     0.992166666667     0          
T        Si     0.080150000000     0.102650000000     0.872466666667     0          
T        Si     0.052600000000     0.150350000000     0.790433333333     0          
O        O      0.163500000000     0.203100000000     0.915000000000     0          
O        O      0.184400000000     0.115450000000     0.909433333333     0          
O        O      0.171850000000     0.140500000000     0.969666666667     0          
O        O      0.116600000000     0.132200000000     0.899366666667     0          
O        O      0.446600000000     0.372800000000     0.711733333333     0          
O        O      0.448700000000     0.296400000000     0.752600000000     0          
O        O      0.453200000000     0.380800000000     0.784233333333     0          
O        O      0.008350000000     0.349100000000     0.771766666667     0          
O        O      0.336950000000     0.203650000000     0.983233333333     0          
O        O      0.336950000000     0.203300000000     0.881500000000     0          
O        O      0.318900000000     0.136750000000     0.826566666667     0          
O        O      0.317250000000     0.046850000000     0.805633333333     0          
O        O      0.102800000000     0.250000000000     0.771966666667     0          
O        O      0.128350000000     0.250000000000     0.718100000000     0          
O        O      0.146650000000     0.000000000000     0.762266666667     0          
O        O      0.122850000000     0.000000000000     0.817366666667     0          
O        O      0.148150000000     0.000000000000     0.692733333333     0          
T        Si     0.159000000000     0.147800000000     0.923066666667     0          
T        Si     0.464250000000     0.349500000000     0.755133333333     0          
T        Si     0.335950000000     0.147900000000     0.992166666667     0          
T        Si     0.330150000000     0.147350000000     0.872466666667     0          
T        Si     0.302600000000     0.099650000000     0.790433333333     0          
T        Si     0.139400000000     0.250000000000     0.764733333333     0          
T        Si     0.360650000000     0.250000000000     0.770466666667     0          
T        Si     0.422750000000     0.250000000000     0.739766666667     0          
T        Si     0.361150000000     0.250000000000     0.985300000000     0          
T        Si     0.409050000000     0.250000000000     0.858900000000     0          
O        O      0.336500000000     0.203100000000     0.751666666667     0          
O        O      0.315600000000     0.115450000000     0.757233333333     0          
O        O      0.328150000000     0.140500000000     0.697000000000     0          
O        O      0.383400000000     0.132200000000     0.767300000000     0          
O        O      0.053400000000     0.372800000000     0.954933333333     0          
O        O      0.051300000000     0.296400000000     0.914066666667     0          
O        O      0.046800000000     0.380800000000     0.882433333333     0          
O        O      0.491650000000     0.349100000000     0.894900000000     0          
O        O      0.163050000000     0.203650000000     0.683433333333     0          
O        O      0.163050000000     0.203300000000     0.785166666667     0          
O        O      0.181100000000     0.136750000000     0.840100000000     0          
O        O      0.182750000000     0.046850000000     0.861033333333     0          
O        O      0.397200000000     0.250000000000     0.894700000000     0          
O        O      0.371650000000     0.250000000000     0.948566666667     0          
O        O      0.353350000000     0.000000000000     0.904400000000     0          
O        O      0.377150000000     0.000000000000     0.849300000000     0          
O        O      0.351850000000     0.000000000000     0.973933333333     0          
T        Si     0.341000000000     0.147800000000     0.743600000000     0          
T        Si     0.035750000000     0.349500000000     0.911533333333     0          
T        Si     0.164050000000     0.147900000000     0.674500000000     0          
T        Si     0.169850000000     0.147350000000     0.794200000000     0          
T        Si     0.197400000000     0.099650000000     0.876233333333     0          
T        Si     0.360600000000     0.250000000000     0.901933333333     0          
T        Si     0.139350000000     0.250000000000     0.896200000000     0          
T        Si     0.077250000000     0.250000000000     0.926900000000     0          
T        Si     0.138850000000     0.250000000000     0.681366666667     0          
T        Si     0.090950000000     0.250000000000     0.807766666667     0          
O        O      0.336500000000     0.296900000000     0.751666666667     0          
O        O      0.315600000000     0.384550000000     0.757233333333     0          
O        O      0.328150000000     0.359500000000     0.697000000000     0          
O        O      0.383400000000     0.367800000000     0.767300000000     0          
O        O      0.053400000000     0.127200000000     0.954933333333     0          
O        O      0.051300000000     0.203600000000     0.914066666667     0          
O        O      0.046800000000     0.119200000000     0.882433333333     0          
O        O      0.491650000000     0.150900000000     0.894900000000     0          
O        O      0.163050000000     0.296350000000     0.683433333333     0          
O        O      0.163050000000     0.296700000000     0.785166666667     0          
O        O      0.181100000000     0.363250000000     0.840100000000     0          
O        O      0.182750000000     0.453150000000     0.861033333333     0          
T        Si     0.341000000000     0.352200000000     0.743600000000     0          
T        Si     0.035750000000     0.150500000000     0.911533333333     0          
T        Si     0.164050000000     0.352100000000     0.674500000000     0          
T        Si     0.169850000000     0.352650000000     0.794200000000     0          
T        Si     0.197400000000     0.400350000000     0.876233333333     0          
O        O      0.163500000000     0.296900000000     0.915000000000     0          
O        O      0.184400000000     0.384550000000     0.909433333333     0          
O        O      0.171850000000     0.359500000000     0.969666666667     0          
O        O      0.116600000000     0.367800000000     0.899366666667     0          
O        O      0.446600000000     0.127200000000     0.711733333333     0          
O        O      0.448700000000     0.203600000000     0.752600000000     0          
O        O      0.453200000000     0.119200000000     0.784233333333     0          
O        O      0.008350000000     0.150900000000     0.771766666667     0          
O        O      0.336950000000     0.296350000000     0.983233333333     0          
O        O      0.336950000000     0.296700000000     0.881500000000     0          
O        O      0.318900000000     0.363250000000     0.826566666667     0          
O        O      0.317250000000     0.453150000000     0.805633333333     0          
T        Si     0.159000000000     0.352200000000     0.923066666667     0          
T        Si     0.464250000000     0.150500000000     0.755133333333     0          
T        Si     0.335950000000     0.352100000000     0.992166666667     0          
T        Si     0.330150000000     0.352650000000     0.872466666667     0          
T        Si     0.302600000000     0.400350000000     0.790433333333     0          
O        O      0.413500000000     0.953100000000     0.248333333333     0          
O        O      0.434400000000     0.865450000000     0.242766666667     0          
O        O      0.421850000000     0.890500000000     0.303000000000     0          
O        O      0.366600000000     0.882200000000     0.232700000000     0          
O        O      0.196600000000     0.622800000000     0.045066666667     0          
O        O      0.198700000000     0.546400000000     0.085933333333     0          
O        O      0.203200000000     0.630800000000     0.117566666667     0          
O        O      0.258350000000     0.599100000000     0.105100000000     0          
O        O      0.086950000000     0.953650000000     0.316566666667     0          
O        O      0.125000000000     0.875000000000     0.000000000000     0          
O        O      0.086950000000     0.953300000000     0.214833333333     0          
O        O      0.068900000000     0.886750000000     0.159900000000     0          
O        O      0.067250000000     0.796850000000     0.138966666667     0          
O        O      0.352800000000     0.500000000000     0.105300000000     0          
O        O      0.378350000000     0.500000000000     0.051433333333     0          
O        O      0.396650000000     0.750000000000     0.095600000000     0          
O        O      0.372850000000     0.750000000000     0.150700000000     0          
O        O      0.398150000000     0.750000000000     0.026066666667     0          
T        Si     0.409000000000     0.897800000000     0.256400000000     0          
T        Si     0.214250000000     0.599500000000     0.088466666667     0          
T        Si     0.085950000000     0.897900000000     0.325500000000     0          
T        Si     0.080150000000     0.897350000000     0.205800000000     0          
T        Si     0.052600000000     0.849650000000     0.123766666667     0          
T        Si     0.389400000000     0.500000000000     0.098066666667     0          
T        Si     0.110650000000     0.500000000000     0.103800000000     0          
T        Si     0.172750000000     0.500000000000     0.073100000000     0          
T        Si     0.111150000000     0.500000000000     0.318633333333     0          
T        Si     0.159050000000     0.500000000000     0.192233333333     0          
O        O      0.086500000000     0.953100000000     0.085000000000     0          
O        O      0.065600000000     0.865450000000     0.090566666667     0          
O        O      0.078150000000     0.890500000000     0.030333333333     0          
O        O      0.133400000000     0.882200000000     0.100633333333     0          
O        O      0.303400000000     0.622800000000     0.288266666667     0          
O        O      0.301300000000     0.546400000000     0.247400000000     0          
O        O      0.296800000000     0.630800000000     0.215766666667     0          
O        O      0.241650000000     0.599100000000     0.228233333333     0          
O        O      0.413050000000     0.953650000000     0.016766666667     0          
O        O      0.375000000000     0.875000000000     0.000000000000     0          
O        O      0.413050000000     0.953300000000     0.118500000000     0          
O        O      0.431100000000     0.886750000000     0.173433333333     0          
O        O      0.432750000000     0.796850000000     0.194366666667     0          
O        O      0.147200000000     0.500000000000     0.228033333333     0          
O        O      0.121650000000     0.500000000000     0.281900000000     0          
O        O      0.103350000000     0.750000000000     0.237733333333     0          
O        O      0.127150000000     0.750000000000     0.182633333333     0          
O        O      0.101850000000     0.750000000000     0.307266666667     0          
T        Si     0.091000000000     0.897800000000     0.076933333333     0          
T        Si     0.285750000000     0.599500000000     0.244866666667     0          
T        Si     0.414050000000     0.897900000000     0.007833333333     0          
T        Si     0.419850000000     0.897350000000     0.127533333333     0          
T        Si     0.447400000000     0.849650000000     0.209566666667     0          
T        Si     0.110600000000     0.500000000000     0.235266666667     0          
T        Si     0.389350000000     0.500000000000     0.229533333333     0          
T        Si     0.327250000000     0.500000000000     0.260233333333     0          
T        Si     0.388850000000     0.500000000000     0.014700000000     0          
T        Si     0.340950000000     0.500000000000     0.141100000000     0          
O        O      0.086500000000     0.546900000000     0.085000000000     0          
O        O      0.065600000000     0.634550000000     0.090566666667     0          
O        O      0.078150000000     0.609500000000     0.030333333333     0          
O        O      0.133400000000     0.617800000000     0.100633333333     0          
O        O      0.303400000000     0.877200000000     0.288266666667     0          
O        O      0.301300000000     0.953600000000     0.247400000000     0          
O        O      0.296800000000     0.869200000000     0.215766666667     0          
O        O      0.241650000000     0.900900000000     0.228233333333     0          
O        O      0.413050000000     0.546350000000     0.016766666667     0          
O        O      0.375000000000     0.625000000000     0.000000000000     0          
O        O      0.413050000000     0.546700000000     0.118500000000     0          
O        O      0.431100000000     0.613250000000     0.173433333333     0          
O        O      0.432750000000     0.703150000000     0.194366666667     0          
T        Si     0.091000000000     0.602200000000     0.076933333333     0          
T        Si     0.285750000000     0.900500000000     0.244866666667     0          
T        Si     0.414050000000     0.602100000000     0.007833333333     0          
T        Si     0.419850000000     0.602650000000     0.127533333333     0          
T        Si     0.447400000000     0.650350000000     0.209566666667     0          
O        O      0.413500000000     0.546900000000     0.248333333333     0          
O        O      0.434400000000     0.634550000000     0.242766666667     0          
O        O      0.421850000000     0.609500000000     0.303000000000     0          
O        O      0.366600000000     0.617800000000     0.232700000000     0          
O        O      0.196600000000     0.877200000000     0.045066666667     0          
O        O      0.198700000000     0.953600000000     0.085933333333     0          
O        O      0.203200000000     0.869200000000     0.117566666667     0          
O        O      0.258350000000     0.900900000000     0.105100000000     0          
O        O      0.086950000000     0.546350000000     0.316566666667     0          
O        O      0.125000000000     0.625000000000     0.000000000000     0          
O        O      0.086950000000     0.546700000000     0.214833333333     0          
O        O      0.068900000000     0.613250000000     0.159900000000     0          
O        O      0.067250000000     0.703150000000     0.138966666667     0          
T        Si     0.409000000000     0.602200000000     0.256400000000     0          
T        Si     0.214250000000     0.900500000000     0.088466666667     0          
T        Si     0.085950000000     0.602100000000     0.325500000000     0          
T        Si     0.080150000000     0.602650000000     0.205800000000     0          
T        Si     0.052600000000     0.650350000000     0.123766666667     0          
O        O      0.163500000000     0.703100000000     0.248333333333     0          
O        O      0.184400000000     0.615450000000     0.242766666667     0          
O        O      0.171850000000     0.640500000000     0.303000000000     0          
O        O      0.116600000000     0.632200000000     0.232700000000     0          
O        O      0.446600000000     0.872800000000     0.045066666667     0          
O        O      0.448700000000     0.796400000000     0.085933333333     0          
O        O      0.453200000000     0.880800000000     0.117566666667     0          
O        O      0.008350000000     0.849100000000     0.105100000000     0          
O        O      0.336950000000     0.703650000000     0.316566666667     0          
O        O      0.336950000000     0.703300000000     0.214833333333     0          
O        O      0.318900000000     0.636750000000     0.159900000000     0          
O        O      0.317250000000     0.546850000000     0.138966666667     0          
O        O      0.102800000000     0.750000000000     0.105300000000     0          
O        O      0.128350000000     0.750000000000     0.051433333333     0          
O        O      0.146650000000     0.500000000000     0.095600000000     0          
O        O      0.122850000000     0.500000000000     0.150700000000     0          
O        O      0.148150000000     0.500000000000     0.026066666667     0          
T        Si     0.159000000000     0.647800000000     0.256400000000     0          
T        Si     0.464250000000     0.849500000000     0.088466666667     0          
T        Si     0.335950000000     0.647900000000     0.325500000000     0          
T        Si     0.330150000000     0.647350000000     0.205800000000     0          
T        Si     0.302600000000     0.599650000000     0.123766666667     0          
T        Si     0.139400000000     0.750000000000     0.098066666667     0          
T        Si     0.360650000000     0.750000000000     0.103800000000     0          
T        Si     0.422750000000     0.750000000000     0.073100000000     0          
T        Si     0.361150000000     0.750000000000     0.318633333333     0          
T        Si     0.409050000000     0.750000000000     0.192233333333     0          
O        O      0.336500000000     0.703100000000     0.085000000000     0          
O        O      0.315600000000     0.615450000000     0.090566666667     0          
O        O      0.328150000000     0.640500000000     0.030333333333     0          
O        O      0.383400000000     0.632200000000     0.100633333333     0          
O        O      0.053400000000     0.872800000000     0.288266666667     0          
O        O      0.051300000000     0.796400000000     0.247400000000     0          
O        O      0.046800000000     0.880800000000     0.215766666667     0          
O        O      0.491650000000     0.849100000000     0.228233333333     0          
O        O      0.163050000000     0.703650000000     0.016766666667     0          
O        O      0.163050000000     0.703300000000     0.118500000000     0          
O        O      0.181100000000     0.636750000000     0.173433333333     0          
O        O      0.182750000000     0.546850000000     0.194366666667     0          
O        O      0.397200000000     0.750000000000     0.228033333333     0          
O        O      0.371650000000     0.750000000000     0.281900000000     0          
O        O      0.353350000000     0.500000000000     0.237733333333     0          
O        O      0.377150000000     0.500000000000     0.182633333333     0          
O        O      0.351850000000     0.500000000000     0.307266666667     0          
T        Si     0.341000000000     0.647800000000     0.076933333333     0          
T        Si     0.035750000000     0.849500000000     0.244866666667     0          
T        Si     0.164050000000     0.647900000000     0.007833333333     0          
T        Si     0.169850000000     0.647350000000     0.127533333333     0          
T        Si     0.197400000000     0.599650000000     0.209566666667     0          
T        Si     0.360600000000     0.750000000000     0.235266666667     0          
T        Si     0.139350000000     0.750000000000     0.229533333333     0          
T        Si     0.077250000000     0.750000000000     0.260233333333     0          
T        Si     0.138850000000     0.750000000000     0.014700000000     0          
T        Si     0.090950000000     0.750000000000     0.141100000000     0          
O        O      0.336500000000     0.796900000000     0.085000000000     0          
O        O      0.315600000000     0.884550000000     0.090566666667     0          
O        O      0.328150000000     0.859500000000     0.030333333333     0          
O        O      0.383400000000     0.867800000000     0.100633333333     0          
O        O      0.053400000000     0.627200000000     0.288266666667     0          
O        O      0.051300000000     0.703600000000     0.247400000000     0          
O        O      0.046800000000     0.619200000000     0.215766666667     0          
O        O      0.491650000000     0.650900000000     0.228233333333     0          
O        O      0.163050000000     0.796350000000     0.016766666667     0          
O        O      0.163050000000     0.796700000000     0.118500000000     0          
O        O      0.181100000000     0.863250000000     0.173433333333     0          
O        O      0.182750000000     0.953150000000     0.194366666667     0          
T        Si     0.341000000000     0.852200000000     0.076933333333     0          
T        Si     0.035750000000     0.650500000000     0.244866666667     0          
T        Si     0.164050000000     0.852100000000     0.007833333333     0          
T        Si     0.169850000000     0.852650000000     0.127533333333     0          
T        Si     0.197400000000     0.900350000000     0.209566666667     0          
O        O      0.163500000000     0.796900000000     0.248333333333     0          
O        O      0.184400000000     0.884550000000     0.242766666667     0          
O        O      0.171850000000     0.859500000000     0.303000000000     0          
O        O      0.116600000000     0.867800000000     0.232700000000     0          
O        O      0.446600000000     0.627200000000     0.045066666667     0          
O        O      0.448700000000     0.703600000000     0.085933333333     0          
O        O      0.453200000000     0.619200000000     0.117566666667     0          
O        O      0.008350000000     0.650900000000     0.105100000000     0          
O        O      0.336950000000     0.796350000000     0.316566666667     0          
O        O      0.336950000000     0.796700000000     0.214833333333     0          
O        O      0.318900000000     0.863250000000     0.159900000000     0          
O        O      0.317250000000     0.953150000000     0.138966666667     0          
T        Si     0.159000000000     0.852200000000     0.256400000000     0          
T        Si     0.464250000000     0.650500000000     0.088466666667     0          
T        Si     0.335950000000     0.852100000000     0.325500000000     0          
T        Si     0.330150000000     0.852650000000     0.205800000000     0          
T        Si     0.302600000000     0.900350000000     0.123766666667     0          
O        O      0.413500000000     0.953100000000     0.581666666667     0          
O        O      0.434400000000     0.865450000000     0.576100000000     0          
O        O      0.421850000000     0.890500000000     0.636333333333     0          
O        O      0.366600000000     0.882200000000     0.566033333333     0          
O        O      0.196600000000     0.622800000000     0.378400000000     0          
O        O      0.198700000000     0.546400000000     0.419266666667     0          
O        O      0.203200000000     0.630800000000     0.450900000000     0          
O        O      0.258350000000     0.599100000000     0.438433333333     0          
O        O      0.086950000000     0.953650000000     0.649900000000     0          
O        O      0.125000000000     0.875000000000     0.333333333333     0          
O        O      0.086950000000     0.953300000000     0.548166666667     0          
O        O      0.068900000000     0.886750000000     0.493233333333     0          
O        O      0.067250000000     0.796850000000     0.472300000000     0          
O        O      0.352800000000     0.500000000000     0.438633333333     0          
O        O      0.378350000000     0.500000000000     0.384766666667     0          
O        O      0.396650000000     0.750000000000     0.428933333333     0          
O        O      0.372850000000     0.750000000000     0.484033333333     0          
O        O      0.398150000000     0.750000000000     0.359400000000     0          
T        Si     0.409000000000     0.897800000000     0.589733333333     0          
T        Si     0.214250000000     0.599500000000     0.421800000000     0          
T        Si     0.085950000000     0.897900000000     0.658833333333     0          
T        Si     0.080150000000     0.897350000000     0.539133333333     0          
T        Si     0.052600000000     0.849650000000     0.457100000000     0          
T        Si     0.389400000000     0.500000000000     0.431400000000     0          
T        Si     0.110650000000     0.500000000000     0.437133333333     0          
T        Si     0.172750000000     0.500000000000     0.406433333333     0          
T        Si     0.111150000000     0.500000000000     0.651966666667     0          
T        Si     0.159050000000     0.500000000000     0.525566666667     0          
O        O      0.086500000000     0.953100000000     0.418333333333     0          
O        O      0.065600000000     0.865450000000     0.423900000000     0          
O        O      0.078150000000     0.890500000000     0.363666666667     0          
O        O      0.133400000000     0.882200000000     0.433966666667     0          
O        O      0.303400000000     0.622800000000     0.621600000000     0          
O        O      0.301300000000     0.546400000000     0.580733333333     0          
O        O      0.296800000000     0.630800000000     0.549100000000     0          
O        O      0.241650000000     0.599100000000     0.561566666667     0          
O        O      0.413050000000     0.953650000000     0.350100000000     0          
O        O      0.375000000000     0.875000000000     0.333333333333     0          
O        O      0.413050000000     0.953300000000     0.451833333333     0          
O        O      0.431100000000     0.886750000000     0.506766666667     0          
O        O      0.432750000000     0.796850000000     0.527700000000     0          
O        O      0.147200000000     0.500000000000     0.561366666667     0          
O        O      0.121650000000     0.500000000000     0.615233333333     0          
O        O      0.103350000000     0.750000000000     0.571066666667     0          
O        O      0.127150000000     0.750000000000     0.515966666667     0          
O        O      0.101850000000     0.750000000000     0.640600000000     0          
T        Si     0.091000000000     0.897800000000     0.410266666667     0          
T        Si     0.285750000000     0.599500000000     0.578200000000     0          
T        Si     0.414050000000     0.897900000000     0.341166666667     0          
T        Si     0.419850000000     0.897350000000     0.460866666667     0          
T        Si     0.447400000000     0.849650000000     0.542900000000     0          
T        Si     0.110600000000     0.500000000000     0.568600000000     0          
T        Si     0.389350000000     0.500000000000     0.562866666667     0          
T        Si     0.327250000000     0.500000000000     0.593566666667     0          
T        Si     0.388850000000     0.500000000000     0.348033333333     0          
T        Si     0.340950000000     0.500000000000     0.474433333333     0          
O        O      0.086500000000     0.546900000000     0.418333333333     0          
O        O      0.065600000000     0.634550000000     0.423900000000     0          
O        O      0.078150000000     0.609500000000     0.363666666667     0          
O        O      0.133400000000     0.617800000000     0.433966666667     0          
O        O      0.303400000000     0.877200000000     0.621600000000     0          
O        O      0.301300000000     0.953600000000     0.580733333333     0          
O        O      0.296800000000     0.869200000000     0.549100000000     0          
O        O      0.241650000000     0.900900000000     0.561566666667     0          
O        O      0.413050000000     0.546350000000     0.350100000000     0          
O        O      0.375000000000     0.625000000000     0.333333333333     0          
O        O      0.413050000000     0.546700000000     0.451833333333     0          
O        O      0.431100000000     0.613250000000     0.506766666667     0          
O        O      0.432750000000     0.703150000000     0.527700000000     0          
T        Si     0.091000000000     0.602200000000     0.410266666667     0          
T        Si     0.285750000000     0.900500000000     0.578200000000     0          
T        Si     0.414050000000     0.602100000000     0.341166666667     0          
T        Si     0.419850000000     0.602650000000     0.460866666667     0          
T        Si     0.447400000000     0.650350000000     0.542900000000     0          
O        O      0.413500000000     0.546900000000     0.581666666667     0          
O        O      0.434400000000     0.634550000000     0.576100000000     0          
O        O      0.421850000000     0.609500000000     0.636333333333     0          
O        O      0.366600000000     0.617800000000     0.566033333333     0          
O        O      0.196600000000     0.877200000000     0.378400000000     0          
O        O      0.198700000000     0.953600000000     0.419266666667     0          
O        O      0.203200000000     0.869200000000     0.450900000000     0          
O        O      0.258350000000     0.900900000000     0.438433333333     0          
O        O      0.086950000000     0.546350000000     0.649900000000     0          
O        O      0.125000000000     0.625000000000     0.333333333333     0          
O        O      0.086950000000     0.546700000000     0.548166666667     0          
O        O      0.068900000000     0.613250000000     0.493233333333     0          
O        O      0.067250000000     0.703150000000     0.472300000000     0          
T        Si     0.409000000000     0.602200000000     0.589733333333     0          
T        Si     0.214250000000     0.900500000000     0.421800000000     0          
T        Si     0.085950000000     0.602100000000     0.658833333333     0          
T        Si     0.080150000000     0.602650000000     0.539133333333     0          
T        Si     0.052600000000     0.650350000000     0.457100000000     0          
O        O      0.163500000000     0.703100000000     0.581666666667     0          
O        O      0.184400000000     0.615450000000     0.576100000000     0          
O        O      0.171850000000     0.640500000000     0.636333333333     0          
O        O      0.116600000000     0.632200000000     0.566033333333     0          
O        O      0.446600000000     0.872800000000     0.378400000000     0          
O        O      0.448700000000     0.796400000000     0.419266666667     0          
O        O      0.453200000000     0.880800000000     0.450900000000     0          
O        O      0.008350000000     0.849100000000     0.438433333333     0          
O        O      0.336950000000     0.703650000000     0.649900000000     0          
O        O      0.336950000000     0.703300000000     0.548166666667     0          
O        O      0.318900000000     0.636750000000     0.493233333333     0          
O        O      0.317250000000     0.546850000000     0.472300000000     0          
O        O      0.102800000000     0.750000000000     0.438633333333     0          
O        O      0.128350000000     0.750000000000     0.384766666667     0          
O        O      0.146650000000     0.500000000000     0.428933333333     0          
O        O      0.122850000000     0.500000000000     0.484033333333     0          
O        O      0.148150000000     0.500000000000     0.359400000000     0          
T        Si     0.159000000000     0.647800000000     0.589733333333     0          
T        Si     0.464250000000     0.849500000000     0.421800000000     0          
T        Si     0.335950000000     0.647900000000     0.658833333333     0          
T        Si     0.330150000000     0.647350000000     0.539133333333     0          
T        Si     0.302600000000     0.599650000000     0.457100000000     0          
T        Si     0.139400000000     0.750000000000     0.431400000000     0          
T        Si     0.360650000000     0.750000000000     0.437133333333     0          
T        Si     0.422750000000     0.750000000000     0.406433333333     0          
T        Si     0.361150000000     0.750000000000     0.651966666667     0          
T        Si     0.409050000000     0.750000000000     0.525566666667     0          
O        O      0.336500000000     0.703100000000     0.418333333333     0          
O        O      0.315600000000     0.615450000000     0.423900000000     0          
O        O      0.328150000000     0.640500000000     0.363666666667     0          
O        O      0.383400000000     0.632200000000     0.433966666667     0          
O        O      0.053400000000     0.872800000000     0.621600000000     0          
O        O      0.051300000000     0.796400000000     0.580733333333     0          
O        O      0.046800000000     0.880800000000     0.549100000000     0          
O        O      0.491650000000     0.849100000000     0.561566666667     0          
O        O      0.163050000000     0.703650000000     0.350100000000     0          
O        O      0.163050000000     0.703300000000     0.451833333333     0          
O        O      0.181100000000     0.636750000000     0.506766666667     0          
O        O      0.182750000000     0.546850000000     0.527700000000     0          
O        O      0.397200000000     0.750000000000     0.561366666667     0          
O        O      0.371650000000     0.750000000000     0.615233333333     0          
O        O      0.353350000000     0.500000000000     0.571066666667     0          
O        O      0.377150000000     0.500000000000     0.515966666667     0          
O        O      0.351850000000     0.500000000000     0.640600000000     0          
T        Si     0.341000000000     0.647800000000     0.410266666667     0          
T        Si     0.035750000000     0.849500000000     0.578200000000     0          
T        Si     0.164050000000     0.647900000000     0.341166666667     0          
T        Si     0.169850000000     0.647350000000     0.460866666667     0          
T        Si     0.197400000000     0.599650000000     0.542900000000     0          
T        Si     0.360600000000     0.750000000000     0.568600000000     0          
T        Si     0.139350000000     0.750000000000     0.562866666667     0          
T        Si     0.077250000000     0.750000000000     0.593566666667     0          
T        Si     0.138850000000     0.750000000000     0.348033333333     0          
T        Si     0.090950000000     0.750000000000     0.474433333333     0          
O        O      0.336500000000     0.796900000000     0.418333333333     0          
O        O      0.315600000000     0.884550000000     0.423900000000     0          
O        O      0.328150000000     0.859500000000     0.363666666667     0          
O        O      0.383400000000     0.867800000000     0.433966666667     0          
O        O      0.053400000000     0.627200000000     0.621600000000     0          
O        O      0.051300000000     0.703600000000     0.580733333333     0          
O        O      0.046800000000     0.619200000000     0.549100000000     0          
O        O      0.491650000000     0.650900000000     0.561566666667     0          
O        O      0.163050000000     0.796350000000     0.350100000000     0          
O        O      0.163050000000     0.796700000000     0.451833333333     0          
O        O      0.181100000000     0.863250000000     0.506766666667     0          
O        O      0.182750000000     0.953150000000     0.527700000000     0          
T        Si     0.341000000000     0.852200000000     0.410266666667     0          
T        Si     0.035750000000     0.650500000000     0.578200000000     0          
T        Si     0.164050000000     0.852100000000     0.341166666667     0          
T        Si     0.169850000000     0.852650000000     0.460866666667     0          
T        Si     0.197400000000     0.900350000000     0.542900000000     0          
O        O      0.163500000000     0.796900000000     0.581666666667     0          
O        O      0.184400000000     0.884550000000     0.576100000000     0          
O        O      0.171850000000     0.859500000000     0.636333333333     0          
O        O      0.116600000000     0.867800000000     0.566033333333     0          
O        O      0.446600000000     0.627200000000     0.378400000000     0          
O        O      0.448700000000     0.703600000000     0.419266666667     0          
O        O      0.453200000000     0.619200000000     0.450900000000     0          
O        O      0.008350000000     0.650900000000     0.438433333333     0          
O        O      0.336950000000     0.796350000000     0.649900000000     0          
O        O      0.336950000000     0.796700000000     0.548166666667     0          
O        O      0.318900000000     0.863250000000     0.493233333333     0          
O        O      0.317250000000     0.953150000000     0.472300000000     0          
T        Si     0.159000000000     0.852200000000     0.589733333333     0          
T        Si     0.464250000000     0.650500000000     0.421800000000     0          
T        Si     0.335950000000     0.852100000000     0.658833333333     0          
T        Si     0.330150000000     0.852650000000     0.539133333333     0          
T        Si     0.302600000000     0.900350000000     0.457100000000     0          
O        O      0.413500000000     0.953100000000     0.915000000000     0          
O        O      0.434400000000     0.865450000000     0.909433333333     0          
O        O      0.421850000000     0.890500000000     0.969666666667     0          
O        O      0.366600000000     0.882200000000     0.899366666667     0          
O        O      0.196600000000     0.622800000000     0.711733333333     0          
O        O      0.198700000000     0.546400000000     0.752600000000     0          
O        O      0.203200000000     0.630800000000     0.784233333333     0          
O        O      0.258350000000     0.599100000000     0.771766666667     0          
O        O      0.086950000000     0.953650000000     0.983233333333     0          
O        O      0.125000000000     0.875000000000     0.666666666667     0          
O        O      0.086950000000     0.953300000000     0.881500000000     0          
O        O      0.068900000000     0.886750000000     0.826566666667     0          
O        O      0.067250000000     0.796850000000     0.805633333333     0          
O        O      0.352800000000     0.500000000000     0.771966666667     0          
O        O      0.378350000000     0.500000000000     0.718100000000     0          
O        O      0.396650000000     0.750000000000     0.762266666667     0          
O        O      0.372850000000     0.750000000000     0.817366666667     0          
O        O      0.398150000000     0.750000000000     0.692733333333     0          
T        Si     0.409000000000     0.897800000000     0.923066666667     0          
T        Si     0.214250000000     0.599500000000     0.755133333333     0          
T        Si     0.085950000000     0.897900000000     0.992166666667     0          
T        Si     0.080150000000     0.897350000000     0.872466666667     0          
T        Si     0.052600000000     0.849650000000     0.790433333333     0          
T        Si     0.389400000000     0.500000000000     0.764733333333     0          
T        Si     0.110650000000     0.500000000000     0.770466666667     0          
T        Si     0.172750000000     0.500000000000     0.739766666667     0          
T        Si     0.111150000000     0.500000000000     0.985300000000     0          
T        Si     0.159050000000     0.500000000000     0.858900000000     0          
O        O      0.086500000000     0.953100000000     0.751666666667     0          
O        O      0.065600000000     0.865450000000     0.757233333333     0          
O        O      0.078150000000     0.890500000000     0.697000000000     0          
O        O      0.133400000000     0.882200000000     0.767300000000     0          
O        O      0.303400000000     0.622800000000     0.954933333333     0          
O        O      0.301300000000     0.546400000000     0.914066666667     0          
O        O      0.296800000000     0.630800000000     0.882433333333     0          
O        O      0.241650000000     0.599100000000     0.894900000000     0          
O        O      0.413050000000     0.953650000000     0.683433333333     0          
O        O      0.375000000000     0.875000000000     0.666666666667     0          
O        O      0.413050000000     0.953300000000     0.785166666667     0          
O        O      0.431100000000     0.886750000000     0.840100000000     0          
O        O      0.432750000000     0.796850000000     0.861033333333     0          
O        O      0.147200000000     0.500000000000     0.894700000000     0          
O        O      0.121650000000     0.500000000000     0.948566666667     0          
O        O      0.103350000000     0.750000000000     0.904400000000     0          
O        O      0.127150000000     0.750000000000     0.849300000000     0          
O        O      0.101850000000     0.750000000000     0.973933333333     0          
T        Si     0.091000000000     0.897800000000     0.743600000000     0          
T        Si     0.285750000000     0.599500000000     0.911533333333     0          
T        Si     0.414050000000     0.897900000000     0.674500000000     0          
T        Si     0.419850000000     0.897350000000     0.794200000000     0          
T        Si     0.447400000000     0.849650000000     0.876233333333     0          
T        Si     0.110600000000     0.500000000000     0.901933333333     0          
T        Si     0.389350000000     0.500000000000     0.896200000000     0          
T        Si     0.327250000000     0.500000000000     0.926900000000     0          
T        Si     0.388850000000     0.500000000000     0.681366666667     0          
T        Si     0.340950000000     0.500000000000     0.807766666667     0          
O        O      0.086500000000     0.546900000000     0.751666666667     0          
O        O      0.065600000000     0.634550000000     0.757233333333     0          
O        O      0.078150000000     0.609500000000     0.697000000000     0          
O        O      0.133400000000     0.617800000000     0.767300000000     0          
O        O      0.303400000000     0.877200000000     0.954933333333     0          
O        O      0.301300000000     0.953600000000     0.914066666667     0          
O        O      0.296800000000     0.869200000000     0.882433333333     0          
O        O      0.241650000000     0.900900000000     0.894900000000     0          
O        O      0.413050000000     0.546350000000     0.683433333333     0          
O        O      0.375000000000     0.625000000000     0.666666666667     0          
O        O      0.413050000000     0.546700000000     0.785166666667     0          
O        O      0.431100000000     0.613250000000     0.840100000000     0          
O        O      0.432750000000     0.703150000000     0.861033333333     0          
T        Si     0.091000000000     0.602200000000     0.743600000000     0          
T        Si     0.285750000000     0.900500000000     0.911533333333     0          
T        Si     0.414050000000     0.602100000000     0.674500000000     0          
T        Si     0.419850000000     0.602650000000     0.794200000000     0          
T        Si     0.447400000000     0.650350000000     0.876233333333     0          
O        O      0.413500000000     0.546900000000     0.915000000000     0          
O        O      0.434400000000     0.634550000000     0.909433333333     0          
O        O      0.421850000000     0.609500000000     0.969666666667     0          
O        O      0.366600000000     0.617800000000     0.899366666667     0          
O        O      0.196600000000     0.877200000000     0.711733333333     0          
O        O      0.198700000000     0.953600000000     0.752600000000     0          
O        O      0.203200000000     0.869200000000     0.784233333333     0          
O        O      0.258350000000     0.900900000000     0.771766666667     0          
O        O      0.086950000000     0.546350000000     0.983233333333     0          
O        O      0.125000000000     0.625000000000     0.666666666667     0          
O        O      0.086950000000     0.546700000000     0.881500000000     0          
O        O      0.068900000000     0.613250000000     0.826566666667     0          
O        O      0.067250000000     0.703150000000     0.805633333333     0          
T        Si     0.409000000000     0.602200000000     0.923066666667     0          
T        Si     0.214250000000     0.900500000000     0.755133333333     0          
T        Si     0.085950000000     0.602100000000     0.992166666667     0          
T        Si     0.080150000000     0.602650000000     0.872466666667     0          
T        Si     0.052600000000     0.650350000000     0.790433333333     0          
O        O      0.163500000000     0.703100000000     0.915000000000     0          
O        O      0.184400000000     0.615450000000     0.909433333333     0          
O        O      0.171850000000     0.640500000000     0.969666666667     0          
O        O      0.116600000000     0.632200000000     0.899366666667     0          
O        O      0.446600000000     0.872800000000     0.711733333333     0          
O        O      0.448700000000     0.796400000000     0.752600000000     0          
O        O      0.453200000000     0.880800000000     0.784233333333     0          
O        O      0.008350000000     0.849100000000     0.771766666667     0          
O        O      0.336950000000     0.703650000000     0.983233333333     0          
O        O      0.336950000000     0.703300000000     0.881500000000     0          
O        O      0.318900000000     0.636750000000     0.826566666667     0          
O        O      0.317250000000     0.546850000000     0.805633333333     0          
O        O      0.102800000000     0.750000000000     0.771966666667     0          
O        O      0.128350000000     0.750000000000     0.718100000000     0          
O        O      0.146650000000     0.500000000000     0.762266666667     0          
O        O      0.122850000000     0.500000000000     0.817366666667     0          
O        O      0.148150000000     0.500000000000     0.692733333333     0          
T        Si     0.159000000000     0.647800000000     0.923066666667     0          
T        Si     0.464250000000     0.849500000000     0.755133333333     0          
T        Si     0.335950000000     0.647900000000     0.992166666667     0          
T        Si     0.330150000000     0.647350000000     0.872466666667     0          
T        Si     0.302600000000     0.599650000000     0.790433333333     0          
T        Si     0.139400000000     0.750000000000     0.764733333333     0          
T        Si     0.360650000000     0.750000000000     0.770466666667     0          
T        Si     0.422750000000     0.750000000000     0.739766666667     0          
T        Si     0.361150000000     0.750000000000     0.985300000000     0          
T        Si     0.409050000000     0.750000000000     0.858900000000     0          
O        O      0.336500000000     0.703100000000     0.751666666667     0          
O        O      0.315600000000     0.615450000000     0.757233333333     0          
O        O      0.328150000000     0.640500000000     0.697000000000     0          
O        O      0.383400000000     0.632200000000     0.767300000000     0          
O        O      0.053400000000     0.872800000000     0.954933333333     0          
O        O      0.051300000000     0.796400000000     0.914066666667     0          
O        O      0.046800000000     0.880800000000     0.882433333333     0          
O        O      0.491650000000     0.849100000000     0.894900000000     0          
O        O      0.163050000000     0.703650000000     0.683433333333     0          
O        O      0.163050000000     0.703300000000     0.785166666667     0          
O        O      0.181100000000     0.636750000000     0.840100000000     0          
O        O      0.182750000000     0.546850000000     0.861033333333     0          
O        O      0.397200000000     0.750000000000     0.894700000000     0          
O        O      0.371650000000     0.750000000000     0.948566666667     0          
O        O      0.353350000000     0.500000000000     0.904400000000     0          
O        O      0.377150000000     0.500000000000     0.849300000000     0          
O        O      0.351850000000     0.500000000000     0.973933333333     0          
T        Si     0.341000000000     0.647800000000     0.743600000000     0          
T        Si     0.035750000000     0.849500000000     0.911533333333     0          
T        Si     0.164050000000     0.647900000000     0.674500000000     0          
T        Si     0.169850000000     0.647350000000     0.794200000000     0          
T        Si     0.197400000000     0.599650000000     0.876233333333     0          
T        Si     0.360600000000     0.750000000000     0.901933333333     0          
T        Si     0.139350000000     0.750000000000     0.896200000000     0          
T        Si     0.077250000000     0.750000000000     0.926900000000     0          
T        Si     0.138850000000     0.750000000000     0.681366666667     0          
T        Si     0.090950000000     0.750000000000     0.807766666667     0          
O        O      0.336500000000     0.796900000000     0.751666666667     0          
O        O      0.315600000000     0.884550000000     0.757233333333     0          
O        O      0.328150000000     0.859500000000     0.697000000000     0          
O        O      0.383400000000     0.867800000000     0.767300000000     0          
O        O      0.053400000000     0.627200000000     0.954933333333     0          
O        O      0.051300000000     0.703600000000     0.914066666667     0          
O        O      0.046800000000     0.619200000000     0.882433333333     0          
O        O      0.491650000000     0.650900000000     0.894900000000     0          
O        O      0.163050000000     0.796350000000     0.683433333333     0          
O        O      0.163050000000     0.796700000000     0.785166666667     0          
O        O      0.181100000000     0.863250000000     0.840100000000     0          
O        O      0.182750000000     0.953150000000     0.861033333333     0          
T        Si     0.341000000000     0.852200000000     0.743600000000     0          
T        Si     0.035750000000     0.650500000000     0.911533333333     0          
T        Si     0.164050000000     0.852100000000     0.674500000000     0          
T        Si     0.169850000000     0.852650000000     0.794200000000     0          
T        Si     0.197400000000     0.900350000000     0.876233333333     0          
O        O      0.163500000000     0.796900000000     0.915000000000     0          
O        O      0.184400000000     0.884550000000     0.909433333333     0          
O        O      0.171850000000     0.859500000000     0.969666666667     0          
O        O      0.116600000000     0.867800000000     0.899366666667     0          
O        O      0.446600000000     0.627200000000     0.711733333333     0          
O        O      0.448700000000     0.703600000000     0.752600000000     0          
O        O      0.453200000000     0.619200000000     0.784233333333     0          
O        O      0.008350000000     0.650900000000     0.771766666667     0          
O        O      0.336950000000     0.796350000000     0.983233333333     0          
O        O      0.336950000000     0.796700000000     0.881500000000     0          
O        O      0.318900000000     0.863250000000     0.826566666667     0          
O        O      0.317250000000     0.953150000000     0.805633333333     0          
T        Si     0.159000000000     0.852200000000     0.923066666667     0          
T        Si     0.464250000000     0.650500000000     0.755133333333     0          
T        Si     0.335950000000     0.852100000000     0.992166666667     0          
T        Si     0.330150000000     0.852650000000     0.872466666667     0          
T        Si     0.302600000000     0.900350000000     0.790433333333     0          
O        O      0.913500000000     0.453100000000     0.248333333333     0          
O        O      0.934400000000     0.365450000000     0.242766666667     0          
O        O      0.921850000000     0.390500000000     0.303000000000     0          
O        O      0.866600000000     0.382200000000     0.232700000000     0          
O        O      0.696600000000     0.122800000000     0.045066666667     0          
O        O      0.698700000000     0.046400000000     0.085933333333     0          
O        O      0.703200000000     0.130800000000     0.117566666667     0          
O        O      0.758350000000     0.099100000000     0.105100000000     0          
O        O      0.586950000000     0.453650000000     0.316566666667     0          
O        O      0.625000000000     0.375000000000     0.000000000000     0          
O        O      0.586950000000     0.453300000000     0.214833333333     0          
O        O      0.568900000000     0.386750000000     0.159900000000     0          
O        O      0.567250000000     0.296850000000     0.138966666667     0          
O        O      0.852800000000     0.000000000000     0.105300000000     0          
O        O      0.878350000000     0.000000000000     0.051433333333     0          
O        O      0.896650000000     0.250000000000     0.095600000000     0          
O        O      0.872850000000     0.250000000000     0.150700000000     0          
O        O      0.898150000000     0.250000000000     0.026066666667     0          
T        Si     0.909000000000     0.397800000000     0.256400000000     0          
T        Si     0.714250000000     0.099500000000     0.088466666667     0          
T        Si     0.585950000000     0.397900000000     0.325500000000     0          
T        Si     0.580150000000     0.397350000000     0.205800000000     0          
T        Si     0.552600000000     0.349650000000     0.123766666667     0          
T        Si     0.889400000000     0.000000000000     0.098066666667     0          
T        Si     0.610650000000     0.000000000000     0.103800000000     0          
T        Si     0.672750000000     0.000000000000     0.073100000000     0          
T        Si     0.611150000000     0.000000000000     0.318633333333     0          
T        Si     0.659050000000     0.000000000000     0.192233333333     0          
O        O      0.586500000000     0.453100000000     0.085000000000     0          
O        O      0.565600000000     0.365450000000     0.090566666667     0          
O        O      0.578150000000     0.390500000000     0.030333333333     0          
O        O      0.633400000000     0.382200000000     0.100633333333     0          
O        O      0.803400000000     0.122800000000     0.288266666667     0          
O        O      0.801300000000     0.046400000000     0.247400000000     0          
O        O      0.796800000000     0.130800000000     0.215766666667     0          
O        O      0.741650000000     0.099100000000     0.228233333333     0          
O        O      0.913050000000     0.453650000000     0.016766666667     0          
O        O      0.875000000000     0.375000000000     0.000000000000     0          
O        O      0.913050000000     0.453300000000     0.118500000000     0          
O        O      0.931100000000     0.386750000000     0.173433333333     0          
O        O      0.932750000000     0.296850000000     0.194366666667     0          
O        O      0.647200000000     0.000000000000     0.228033333333     0          
O        O      0.621650000000     0.000000000000     0.281900000000     0          
O        O      0.603350000000     0.250000000000     0.237733333333     0          
O        O      0.627150000000     0.250000000000     0.182633333333     0          
O        O      0.601850000000     0.250000000000     0.307266666667     0          
T        Si     0.591000000000     0.397800000000     0.076933333333     0          
T        Si     0.785750000000     0.099500000000     0.244866666667     0          
T        Si     0.914050000000     0.397900000000     0.007833333333     0          
T        Si     0.919850000000     0.397350000000     0.127533333333     0          
T        Si     0.947400000000     0.349650000000     0.209566666667     0          
T        Si     0.610600000000     0.000000000000     0.235266666667     0          
T        Si     0.889350000000     0.000000000000     0.229533333333     0          
T        Si     0.827250000000     0.000000000000     0.260233333333     0          
T        Si     0.888850000000     0.000000000000     0.014700000000     0          
T        Si     0.840950000000     0.000000000000     0.141100000000     0          
O        O      0.586500000000     0.046900000000     0.085000000000     0          
O        O      0.565600000000     0.134550000000     0.090566666667     0          
O        O      0.578150000000     0.109500000000     0.030333333333     0          
O        O      0.633400000000     0.117800000000     0.100633333333     0          
O        O      0.803400000000     0.377200000000     0.288266666667     0          
O        O      0.801300000000     0.453600000000     0.247400000000     0          
O        O      0.796800000000     0.369200000000     0.215766666667     0          
O        O      0.741650000000     0.400900000000     0.228233333333     0          
O        O      0.913050000000     0.046350000000     0.016766666667     0          
O        O      0.875000000000     0.125000000000     0.000000000000     0          
O        O      0.913050000000     0.046700000000     0.118500000000     0          
O        O      0.931100000000     0.113250000000     0.173433333333     0          
O        O      0.932750000000     0.203150000000     0.194366666667     0          
T        Si     0.591000000000     0.102200000000     0.076933333333     0          
T        Si     0.785750000000     0.400500000000     0.244866666667     0          
T        Si     0.914050000000     0.102100000000     0.007833333333     0          
T        Si     0.919850000000     0.102650000000     0.127533333333     0          
T        Si     0.947400000000     0.150350000000     0.209566666667     0          
O        O      0.913500000000     0.046900000000     0.248333333333     0          
O        O      0.934400000000     0.134550000000     0.242766666667     0          
O        O      0.921850000000     0.109500000000     0.303000000000     0          
O        O      0.866600000000     0.117800000000     0.232700000000     0          
O        O      0.696600000000     0.377200000000     0.045066666667     0          
O        O      0.698700000000     0.453600000000     0.085933333333     0          
O        O      0.703200000000     0.369200000000     0.117566666667     0          
O        O      0.758350000000     0.400900000000     0.105100000000     0          
O        O      0.586950000000     0.046350000000     0.316566666667     0          
O        O      0.625000000000     0.125000000000     0.000000000000     0          
O        O      0.586950000000     0.046700000000     0.214833333333     0          
O        O      0.568900000000     0.113250000000     0.159900000000     0          
O        O      0.567250000000     0.203150000000     0.138966666667     0          
T        Si     0.909000000000     0.102200000000     0.256400000000     0          
T        Si     0.714250000000     0.400500000000     0.088466666667     0          
T        Si     0.585950000000     0.102100000000     0.325500000000     0          
T        Si     0.580150000000     0.102650000000     0.205800000000     0          
T        Si     0.552600000000     0.150350000000     0.123766666667     0          
O        O      0.663500000000     0.203100000000     0.248333333333     0          
O        O      0.684400000000     0.115450000000     0.242766666667     0          
O        O      0.671850000000     0.140500000000     0.303000000000     0          
O        O      0.616600000000     0.132200000000     0.232700000000     0          
O        O      0.946600000000     0.372800000000     0.045066666667     0          
O        O      0.948700000000     0.296400000000     0.085933333333     0          
O        O      0.953200000000     0.380800000000     0.117566666667     0          
O        O      0.508350000000     0.349100000000     0.105100000000     0          
O        O      0.836950000000     0.203650000000     0.316566666667     0          
O        O      0.836950000000     0.203300000000     0.214833333333     0          
O        O      0.818900000000     0.136750000000     0.159900000000     0          
O        O      0.817250000000     0.046850000000     0.138966666667     0          
O        O      0.602800000000     0.250000000000     0.105300000000     0          
O        O      0.628350000000     0.250000000000     0.051433333333     0          
O        O      0.646650000000     0.000000000000     0.095600000000     0          
O        O      0.622850000000     0.000000000000     0.150700000000     0          
O        O      0.648150000000     0.000000000000     0.026066666667     0          
T        Si     0.659000000000     0.147800000000     0.256400000000     0          
T        Si     0.964250000000     0.349500000000     0.088466666667     0          
T        Si     0.835950000000     0.147900000000     0.325500000000     0          
T        Si     0.830150000000     0.147350000000     0.205800000000     0          
T        Si     0.802600000000     0.099650000000     0.123766666667     0          
T        Si     0.639400000000     0.250000000000     0.098066666667     0          
T        Si     0.860650000000     0.250000000000     0.103800000000     0          
T        Si     0.922750000000     0.250000000000     0.073100000000     0          
T        Si     0.861150000000     0.250000000000     0.318633333333     0          
T        Si     0.909050000000     0.250000000000     0.192233333333     0          
O        O      0.836500000000     0.203100000000     0.085000000000     0          
O        O      0.815600000000     0.115450000000     0.090566666667     0          
O        O      0.828150000000     0.140500000000     0.030333333333     0          
O        O      0.883400000000     0.132200000000     0.100633333333     0          
O        O      0.553400000000     0.372800000000     0.288266666667     0          
O        O      0.551300000000     0.296400000000     0.247400000000     0          
O        O      0.546800000000     0.380800000000     0.215766666667     0          
O        O      0.991650000000     0.349100000000     0.228233333333     0          
O        O      0.663050000000     0.203650000000     0.016766666667     0          
O        O      0.663050000000     0.203300000000     0.118500000000     0          
O        O      0.681100000000     0.136750000000     0.173433333333     0          
O        O      0.682750000000     0.046850000000     0.194366666667     0          
O        O      0.897200000000     0.250000000000     0.228033333333     0          
O        O      0.871650000000     0.250000000000     0.281900000000     0          
O        O      0.853350000000     0.000000000000     0.237733333333     0          
O        O      0.877150000000     0.000000000000     0.182633333333     0          
O        O      0.851850000000     0.000000000000     0.307266666667     0          
T        Si     0.841000000000     0.147800000000     0.076933333333     0          
T        Si     0.535750000000     0.349500000000     0.244866666667     0          
T        Si     0.664050000000     0.147900000000     0.007833333333     0          
T        Si     0.669850000000     0.147350000000     0.127533333333     0          
T        Si     0.697400000000     0.099650000000     0.209566666667     0          
T        Si     0.860600000000     0.250000000000     0.235266666667     0          
T        Si     0.639350000000     0.250000000000     0.229533333333     0          
T        Si     0.577250000000     0.250000000000     0.260233333333     0          
T        Si     0.638850000000     0.250000000000     0.014700000000     0          
T        Si     0.590950000000     0.250000000000     0.141100000000     0          
O        O      0.836500000000     0.296900000000     0.085000000000     0          
O        O      0.815600000000     0.384550000000     0.090566666667     0          
O        O      0.828150000000     0.359500000000     0.030333333333     0          
O        O      0.883400000000     0.367800000000     0.100633333333     0          
O        O      0.553400000000     0.127200000000     0.288266666667     0          
O        O      0.551300000000     0.203600000000     0.247400000000     0          
O        O      0.546800000000     0.119200000000     0.215766666667     0          
O        O      0.991650000000     0.150900000000     0.228233333333     0          
O        O      0.663050000000     0.296350000000     0.016766666667     0          
O        O      0.663050000000     0.296700000000     0.118500000000     0          
O        O      0.681100000000     0.363250000000     0.173433333333     0          
O        O      0.682750000000     0.453150000000     0.194366666667     0          
T        Si     0.841000000000     0.352200000000     0.076933333333     0          
T        Si     0.535750000000     0.150500000000     0.244866666667     0          
T        Si     0.664050000000     0.352100000000     0.007833333333     0          
T        Si     0.669850000000     0.352650000000     0.127533333333     0          
T        Si     0.697400000000     0.400350000000     0.209566666667     0          
O        O      0.663500000000     0.296900000000     0.248333333333     0          
O        O      0.684400000000     0.384550000000     0.242766666667     0          
O        O      0.671850000000     0.359500000000     0.303000000000     0          
O        O      0.616600000000     0.367800000000     0.232700000000     0          
O        O      0.946600000000     0.127200000000     0.045066666667     0          
O        O      0.948700000000     0.203600000000     0.085933333333     0          
O        O      0.953200000000     0.119200000000     0.117566666667     0          
O        O      0.508350000000     0.150900000000     0.105100000000     0          
O        O      0.836950000000     0.296350000000     0.316566666667     0          
O        O      0.836950000000     0.296700000000     0.214833333333     0          
O        O      0.818900000000     0.363250000000     0.159900000000     0          
O        O      0.817250000000     0.453150000000     0.138966666667     0          
T        Si     0.659000000000     0.352200000000     0.256400000000     0          
T        Si     0.964250000000     0.150500000000     0.088466666667     0          
T        Si     0.835950000000     0.352100000000     0.325500000000     0          
T        Si     0.830150000000     0.352650000000     0.205800000000     0          
T        Si     0.802600000000     0.400350000000     0.123766666667     0          
O        O      0.913500000000     0.453100000000     0.581666666667     0          
O        O      0.934400000000     0.365450000000     0.576100000000     0          
O        O      0.921850000000     0.390500000000     0.636333333333     0          
O        O      0.866600000000     0.382200000000     0.566033333333     0          
O        O      0.696600000000     0.122800000000     0.378400000000     0          
O        O      0.698700000000     0.046400000000     0.419266666667     0          
O        O      0.703200000000     0.130800000000     0.450900000000     0          
O        O      0.758350000000     0.099100000000     0.438433333333     0          
O        O      0.586950000000     0.453650000000     0.649900000000     0          
O        O      0.625000000000     0.375000000000     0.333333333333     0          
O        O      0.586950000000     0.453300000000     0.548166666667     0          
O        O      0.568900000000     0.386750000000     0.493233333333     0          
O        O      0.567250000000     0.296850000000     0.472300000000     0          
O        O      0.852800000000     0.000000000000     0.438633333333     0          
O        O      0.878350000000     0.000000000000     0.384766666667     0          
O        O      0.896650000000     0.250000000000     0.428933333333     0          
O        O      0.872850000000     0.250000000000     0.484033333333     0          
O        O      0.898150000000     0.250000000000     0.359400000000     0          
T        Si     0.909000000000     0.397800000000     0.589733333333     0          
T        Si     0.714250000000     0.099500000000     0.421800000000     0          
T        Si     0.585950000000     0.397900000000     0.658833333333     0          
T        Si     0.580150000000     0.397350000000     0.539133333333     0          
T        Si     0.552600000000     0.349650000000     0.457100000000     0          
T        Si     0.889400000000     0.000000000000     0.431400000000     0          
T        Si     0.610650000000     0.000000000000     0.437133333333     0          
T        Si     0.672750000000     0.000000000000     0.406433333333     0          
T        Si     0.611150000000     0.000000000000     0.651966666667     0          
T        Si     0.659050000000     0.000000000000     0.525566666667     0          
O        O      0.586500000000     0.453100000000     0.418333333333     0          
O        O      0.565600000000     0.365450000000     0.423900000000     0          
O        O      0.578150000000     0.390500000000     0.363666666667     0          
O        O      0.633400000000     0.382200000000     0.433966666667     0          
O        O      0.803400000000     0.122800000000     0.621600000000     0          
O        O      0.801300000000     0.046400000000     0.580733333333     0          
O        O      0.796800000000     0.130800000000     0.549100000000     0          
O        O      0.741650000000     0.099100000000     0.561566666667     0          
O        O      0.913050000000     0.453650000000     0.350100000000     0          
O        O      0.875000000000     0.375000000000     0.333333333333     0          
O        O      0.913050000000     0.453300000000     0.451833333333     0          
O        O      0.931100000000     0.386750000000     0.506766666667     0          
O        O      0.932750000000     0.296850000000     0.527700000000     0          
O        O      0.647200000000     0.000000000000     0.561366666667     0          
O        O      0.621650000000     0.000000000000     0.615233333333     0          
O        O      0.603350000000     0.250000000000     0.571066666667     0          
O        O      0.627150000000     0.250000000000     0.515966666667     0          
O        O      0.601850000000     0.250000000000     0.640600000000     0          
T        Si     0.591000000000     0.397800000000     0.410266666667     0          
T        Si     0.785750000000     0.099500000000     0.578200000000     0          
T        Si     0.914050000000     0.397900000000     0.341166666667     0          
T        Si     0.919850000000     0.397350000000     0.460866666667     0          
T        Si     0.947400000000     0.349650000000     0.542900000000     0          
T        Si     0.610600000000     0.000000000000     0.568600000000     0          
T        Si     0.889350000000     0.000000000000     0.562866666667     0          
T        Si     0.827250000000     0.000000000000     0.593566666667     0          
T        Si     0.888850000000     0.000000000000     0.348033333333     0          
T        Si     0.840950000000     0.000000000000     0.474433333333     0          
O        O      0.586500000000     0.046900000000     0.418333333333     0          
O        O      0.565600000000     0.134550000000     0.423900000000     0          
O        O      0.578150000000     0.109500000000     0.363666666667     0          
O        O      0.633400000000     0.117800000000     0.433966666667     0          
O        O      0.803400000000     0.377200000000     0.621600000000     0          
O        O      0.801300000000     0.453600000000     0.580733333333     0          
O        O      0.796800000000     0.369200000000     0.549100000000     0          
O        O      0.741650000000     0.400900000000     0.561566666667     0          
O        O      0.913050000000     0.046350000000     0.350100000000     0          
O        O      0.875000000000     0.125000000000     0.333333333333     0          
O        O      0.913050000000     0.046700000000     0.451833333333     0          
O        O      0.931100000000     0.113250000000     0.506766666667     0          
O        O      0.932750000000     0.203150000000     0.527700000000     0          
T        Si     0.591000000000     0.102200000000     0.410266666667     0          
T        Si     0.785750000000     0.400500000000     0.578200000000     0          
T        Si     0.914050000000     0.102100000000     0.341166666667     0          
T        Si     0.919850000000     0.102650000000     0.460866666667     0          
T        Si     0.947400000000     0.150350000000     0.542900000000     0          
O        O      0.913500000000     0.046900000000     0.581666666667     0          
O        O      0.934400000000     0.134550000000     0.576100000000     0          
O        O      0.921850000000     0.109500000000     0.636333333333     0          
O        O      0.866600000000     0.117800000000     0.566033333333     0          
O        O      0.696600000000     0.377200000000     0.378400000000     0          
O        O      0.698700000000     0.453600000000     0.419266666667     0          
O        O      0.703200000000     0.369200000000     0.450900000000     0          
O        O      0.758350000000     0.400900000000     0.438433333333     0          
O        O      0.586950000000     0.046350000000     0.649900000000     0          
O        O      0.625000000000     0.125000000000     0.333333333333     0          
O        O      0.586950000000     0.046700000000     0.548166666667     0          
O        O      0.568900000000     0.113250000000     0.493233333333     0          
O        O      0.567250000000     0.203150000000     0.472300000000     0          
T        Si     0.909000000000     0.102200000000     0.589733333333     0          
T        Si     0.714250000000     0.400500000000     0.421800000000     0          
T        Si     0.585950000000     0.102100000000     0.658833333333     0          
T        Si     0.580150000000     0.102650000000     0.539133333333     0          
T        Si     0.552600000000     0.150350000000     0.457100000000     0          
O        O      0.663500000000     0.203100000000     0.581666666667     0          
O        O      0.684400000000     0.115450000000     0.576100000000     0          
O        O      0.671850000000     0.140500000000     0.636333333333     0          
O        O      0.616600000000     0.132200000000     0.566033333333     0          
O        O      0.946600000000     0.372800000000     0.378400000000     0          
O        O      0.948700000000     0.296400000000     0.419266666667     0          
O        O      0.953200000000     0.380800000000     0.450900000000     0          
O        O      0.508350000000     0.349100000000     0.438433333333     0          
O        O      0.836950000000     0.203650000000     0.649900000000     0          
O        O      0.836950000000     0.203300000000     0.548166666667     0          
O        O      0.818900000000     0.136750000000     0.493233333333     0          
O        O      0.817250000000     0.046850000000     0.472300000000     0          
O        O      0.602800000000     0.250000000000     0.438633333333     0          
O        O      0.628350000000     0.250000000000     0.384766666667     0          
O        O      0.646650000000     0.000000000000     0.428933333333     0          
O        O      0.622850000000     0.000000000000     0.484033333333     0          
O        O      0.648150000000     0.000000000000     0.359400000000     0          
T        Si     0.659000000000     0.147800000000     0.589733333333     0          
T        Si     0.964250000000     0.349500000000     0.421800000000     0          
T        Si     0.835950000000     0.147900000000     0.658833333333     0          
T        Si     0.830150000000     0.147350000000     0.539133333333     0          
T        Si     0.802600000000     0.099650000000     0.457100000000     0          
T        Si     0.639400000000     0.250000000000     0.431400000000     0          
T        Si     0.860650000000     0.250000000000     0.437133333333     0          
T        Si     0.922750000000     0.250000000000     0.406433333333     0          
T        Si     0.861150000000     0.250000000000     0.651966666667     0          
T        Si     0.909050000000     0.250000000000     0.525566666667     0          
O        O      0.836500000000     0.203100000000     0.418333333333     0          
O        O      0.815600000000     0.115450000000     0.423900000000     0          
O        O      0.828150000000     0.140500000000     0.363666666667     0          
O        O      0.883400000000     0.132200000000     0.433966666667     0          
O        O      0.553400000000     0.372800000000     0.621600000000     0          
O        O      0.551300000000     0.296400000000     0.580733333333     0          
O        O      0.546800000000     0.380800000000     0.549100000000     0          
O        O      0.991650000000     0.349100000000     0.561566666667     0          
O        O      0.663050000000     0.203650000000     0.350100000000     0          
O        O      0.663050000000     0.203300000000     0.451833333333     0          
O        O      0.681100000000     0.136750000000     0.506766666667     0          
O        O      0.682750000000     0.046850000000     0.527700000000     0          
O        O      0.897200000000     0.250000000000     0.561366666667     0          
O        O      0.871650000000     0.250000000000     0.615233333333     0          
O        O      0.853350000000     0.000000000000     0.571066666667     0          
O        O      0.877150000000     0.000000000000     0.515966666667     0          
O        O      0.851850000000     0.000000000000     0.640600000000     0          
T        Si     0.841000000000     0.147800000000     0.410266666667     0          
T        Si     0.535750000000     0.349500000000     0.578200000000     0          
T        Si     0.664050000000     0.147900000000     0.341166666667     0          
T        Si     0.669850000000     0.147350000000     0.460866666667     0          
T        Si     0.697400000000     0.099650000000     0.542900000000     0          
T        Si     0.860600000000     0.250000000000     0.568600000000     0          
T        Si     0.639350000000     0.250000000000     0.562866666667     0          
T        Si     0.577250000000     0.250000000000     0.593566666667     0          
T        Si     0.638850000000     0.250000000000     0.348033333333     0          
T        Si     0.590950000000     0.250000000000     0.474433333333     0          
O        O      0.836500000000     0.296900000000     0.418333333333     0          
O        O      0.815600000000     0.384550000000     0.423900000000     0          
O        O      0.828150000000     0.359500000000     0.363666666667     0          
O        O      0.883400000000     0.367800000000     0.433966666667     0          
O        O      0.553400000000     0.127200000000     0.621600000000     0          
O        O      0.551300000000     0.203600000000     0.580733333333     0          
O        O      0.546800000000     0.119200000000     0.549100000000     0          
O        O      0.991650000000     0.150900000000     0.561566666667     0          
O        O      0.663050000000     0.296350000000     0.350100000000     0          
O        O      0.663050000000     0.296700000000     0.451833333333     0          
O        O      0.681100000000     0.363250000000     0.506766666667     0          
O        O      0.682750000000     0.453150000000     0.527700000000     0          
T        Si     0.841000000000     0.352200000000     0.410266666667     0          
T        Si     0.535750000000     0.150500000000     0.578200000000     0          
T        Si     0.664050000000     0.352100000000     0.341166666667     0          
T        Si     0.669850000000     0.352650000000     0.460866666667     0          
T        Si     0.697400000000     0.400350000000     0.542900000000     0          
O        O      0.663500000000     0.296900000000     0.581666666667     0          
O        O      0.684400000000     0.384550000000     0.576100000000     0          
O        O      0.671850000000     0.359500000000     0.636333333333     0          
O        O      0.616600000000     0.367800000000     0.566033333333     0          
O        O      0.946600000000     0.127200000000     0.378400000000     0          
O        O      0.948700000000     0.203600000000     0.419266666667     0          
O        O      0.953200000000     0.119200000000     0.450900000000     0          
O        O      0.508350000000     0.150900000000     0.438433333333     0          
O        O      0.836950000000     0.296350000000     0.649900000000     0          
O        O      0.836950000000     0.296700000000     0.548166666667     0          
O        O      0.818900000000     0.363250000000     0.493233333333     0          
O        O      0.817250000000     0.453150000000     0.472300000000     0          
T        Si     0.659000000000     0.352200000000     0.589733333333     0          
T        Si     0.964250000000     0.150500000000     0.421800000000     0          
T        Si     0.835950000000     0.352100000000     0.658833333333     0          
T        Si     0.830150000000     0.352650000000     0.539133333333     0          
T        Si     0.802600000000     0.400350000000     0.457100000000     0          
O        O      0.913500000000     0.453100000000     0.915000000000     0          
O        O      0.934400000000     0.365450000000     0.909433333333     0          
O        O      0.921850000000     0.390500000000     0.969666666667     0          
O        O      0.866600000000     0.382200000000     0.899366666667     0          
O        O      0.696600000000     0.122800000000     0.711733333333     0          
O        O      0.698700000000     0.046400000000     0.752600000000     0          
O        O      0.703200000000     0.130800000000     0.784233333333     0          
O        O      0.758350000000     0.099100000000     0.771766666667     0          
O        O      0.586950000000     0.453650000000     0.983233333333     0          
O        O      0.625000000000     0.375000000000     0.666666666667     0          
O        O      0.586950000000     0.453300000000     0.881500000000     0          
O        O      0.568900000000     0.386750000000     0.826566666667     0          
O        O      0.567250000000     0.296850000000     0.805633333333     0          
O        O      0.852800000000     0.000000000000     0.771966666667     0          
O        O      0.878350000000     0.000000000000     0.718100000000     0          
O        O      0.896650000000     0.250000000000     0.762266666667     0          
O        O      0.872850000000     0.250000000000     0.817366666667     0          
O        O      0.898150000000     0.250000000000     0.692733333333     0          
T        Si     0.909000000000     0.397800000000     0.923066666667     0          
T        Si     0.714250000000     0.099500000000     0.755133333333     0          
T        Si     0.585950000000     0.397900000000     0.992166666667     0          
T        Si     0.580150000000     0.397350000000     0.872466666667     0          
T        Si     0.552600000000     0.349650000000     0.790433333333     0          
T        Si     0.889400000000     0.000000000000     0.764733333333     0          
T        Si     0.610650000000     0.000000000000     0.770466666667     0          
T        Si     0.672750000000     0.000000000000     0.739766666667     0          
T        Si     0.611150000000     0.000000000000     0.985300000000     0          
T        Si     0.659050000000     0.000000000000     0.858900000000     0          
O        O      0.586500000000     0.453100000000     0.751666666667     0          
O        O      0.565600000000     0.365450000000     0.757233333333     0          
O        O      0.578150000000     0.390500000000     0.697000000000     0          
O        O      0.633400000000     0.382200000000     0.767300000000     0          
O        O      0.803400000000     0.122800000000     0.954933333333     0          
O        O      0.801300000000     0.046400000000     0.914066666667     0          
O        O      0.796800000000     0.130800000000     0.882433333333     0          
O        O      0.741650000000     0.099100000000     0.894900000000     0          
O        O      0.913050000000     0.453650000000     0.683433333333     0          
O        O      0.875000000000     0.375000000000     0.666666666667     0          
O        O      0.913050000000     0.453300000000     0.785166666667     0          
O        O      0.931100000000     0.386750000000     0.840100000000     0          
O        O      0.932750000000     0.296850000000     0.861033333333     0          
O        O      0.647200000000     0.000000000000     0.894700000000     0          
O        O      0.621650000000     0.000000000000     0.948566666667     0          
O        O      0.603350000000     0.250000000000     0.904400000000     0          
O        O      0.627150000000     0.250000000000     0.849300000000     0          
O        O      0.601850000000     0.250000000000     0.973933333333     0          
T        Si     0.591000000000     0.397800000000     0.743600000000     0          
T        Si     0.785750000000     0.099500000000     0.911533333333     0          
T        Si     0.914050000000     0.397900000000     0.674500000000     0          
T        Si     0.919850000000     0.397350000000     0.794200000000     0          
T        Si     0.947400000000     0.349650000000     0.876233333333     0          
T        Si     0.610600000000     0.000000000000     0.901933333333     0          
T        Si     0.889350000000     0.000000000000     0.896200000000     0          
T        Si     0.827250000000     0.000000000000     0.926900000000     0          
T        Si     0.888850000000     0.000000000000     0.681366666667     0          
T        Si     0.840950000000     0.000000000000     0.807766666667     0          
O        O      0.586500000000     0.046900000000     0.751666666667     0          
O        O      0.565600000000     0.134550000000     0.757233333333     0          
O        O      0.578150000000     0.109500000000     0.697000000000     0          
O        O      0.633400000000     0.117800000000     0.767300000000     0          
O        O      0.803400000000     0.377200000000     0.954933333333     0          
O        O      0.801300000000     0.453600000000     0.914066666667     0          
O        O      0.796800000000     0.369200000000     0.882433333333     0          
O        O      0.741650000000     0.400900000000     0.894900000000     0          
O        O      0.913050000000     0.046350000000     0.683433333333     0          
O        O      0.875000000000     0.125000000000     0.666666666667     0          
O        O      0.913050000000     0.046700000000     0.785166666667     0          
O        O      0.931100000000     0.113250000000     0.840100000000     0          
O        O      0.932750000000     0.203150000000     0.861033333333     0          
T        Si     0.591000000000     0.102200000000     0.743600000000     0          
T        Si     0.785750000000     0.400500000000     0.911533333333     0          
T        Si     0.914050000000     0.102100000000     0.674500000000     0          
T        Si     0.919850000000     0.102650000000     0.794200000000     0          
T        Si     0.947400000000     0.150350000000     0.876233333333     0          
O        O      0.913500000000     0.046900000000     0.915000000000     0          
O        O      0.934400000000     0.134550000000     0.909433333333     0          
O        O      0.921850000000     0.109500000000     0.969666666667     0          
O        O      0.866600000000     0.117800000000     0.899366666667     0          
O        O      0.696600000000     0.377200000000     0.711733333333     0          
O        O      0.698700000000     0.453600000000     0.752600000000     0          
O        O      0.703200000000     0.369200000000     0.784233333333     0          
O        O      0.758350000000     0.400900000000     0.771766666667     0          
O        O      0.586950000000     0.046350000000     0.983233333333     0          
O        O      0.625000000000     0.125000000000     0.666666666667     0          
O        O      0.586950000000     0.046700000000     0.881500000000     0          
O        O      0.568900000000     0.113250000000     0.826566666667     0          
O        O      0.567250000000     0.203150000000     0.805633333333     0          
T        Si     0.909000000000     0.102200000000     0.923066666667     0          
T        Si     0.714250000000     0.400500000000     0.755133333333     0          
T        Si     0.585950000000     0.102100000000     0.992166666667     0          
T        Si     0.580150000000     0.102650000000     0.872466666667     0          
T        Si     0.552600000000     0.150350000000     0.790433333333     0          
O        O      0.663500000000     0.203100000000     0.915000000000     0          
O        O      0.684400000000     0.115450000000     0.909433333333     0          
O        O      0.671850000000     0.140500000000     0.969666666667     0          
O        O      0.616600000000     0.132200000000     0.899366666667     0          
O        O      0.946600000000     0.372800000000     0.711733333333     0          
O        O      0.948700000000     0.296400000000     0.752600000000     0          
O        O      0.953200000000     0.380800000000     0.784233333333     0          
O        O      0.508350000000     0.349100000000     0.771766666667     0          
O        O      0.836950000000     0.203650000000     0.983233333333     0          
O        O      0.836950000000     0.203300000000     0.881500000000     0          
O        O      0.818900000000     0.136750000000     0.826566666667     0          
O        O      0.817250000000     0.046850000000     0.805633333333     0          
O        O      0.602800000000     0.250000000000     0.771966666667     0          
O        O      0.628350000000     0.250000000000     0.718100000000     0          
O        O      0.646650000000     0.000000000000     0.762266666667     0          
O        O      0.622850000000     0.000000000000     0.817366666667     0          
O        O      0.648150000000     0.000000000000     0.692733333333     0          
T        Si     0.659000000000     0.147800000000     0.923066666667     0          
T        Si     0.964250000000     0.349500000000     0.755133333333     0          
T        Si     0.835950000000     0.147900000000     0.992166666667     0          
T        Si     0.830150000000     0.147350000000     0.872466666667     0          
T        Si     0.802600000000     0.099650000000     0.790433333333     0          
T        Si     0.639400000000     0.250000000000     0.764733333333     0          
T        Si     0.860650000000     0.250000000000     0.770466666667     0          
T        Si     0.922750000000     0.250000000000     0.739766666667     0          
T        Si     0.861150000000     0.250000000000     0.985300000000     0          
T        Si     0.909050000000     0.250000000000     0.858900000000     0          
O        O      0.836500000000     0.203100000000     0.751666666667     0          
O        O      0.815600000000     0.115450000000     0.757233333333     0          
O        O      0.828150000000     0.140500000000     0.697000000000     0          
O        O      0.883400000000     0.132200000000     0.767300000000     0          
O        O      0.553400000000     0.372800000000     0.954933333333     0          
O        O      0.551300000000     0.296400000000     0.914066666667     0          
O        O      0.546800000000     0.380800000000     0.882433333333     0          
O        O      0.991650000000     0.349100000000     0.894900000000     0          
O        O      0.663050000000     0.203650000000     0.683433333333     0          
O        O      0.663050000000     0.203300000000     0.785166666667     0          
O        O      0.681100000000     0.136750000000     0.840100000000     0          
O        O      0.682750000000     0.046850000000     0.861033333333     0          
O        O      0.897200000000     0.250000000000     0.894700000000     0          
O        O      0.871650000000     0.250000000000     0.948566666667     0          
O        O      0.853350000000     0.000000000000     0.904400000000     0          
O        O      0.877150000000     0.000000000000     0.849300000000     0          
O        O      0.851850000000     0.000000000000     0.973933333333     0          
T        Si     0.841000000000     0.147800000000     0.743600000000     0          
T        Si     0.535750000000     0.349500000000     0.911533333333     0          
T        Si     0.664050000000     0.147900000000     0.674500000000     0          
T        Si     0.669850000000     0.147350000000     0.794200000000     0          
T        Si     0.697400000000     0.099650000000     0.876233333333     0          
T        Si     0.860600000000     0.250000000000     0.901933333333     0          
T        Si     0.639350000000     0.250000000000     0.896200000000     0          
T        Si     0.577250000000     0.250000000000     0.926900000000     0          
T        Si     0.638850000000     0.250000000000     0.681366666667     0          
T        Si     0.590950000000     0.250000000000     0.807766666667     0          
O        O      0.836500000000     0.296900000000     0.751666666667     0          
O        O      0.815600000000     0.384550000000     0.757233333333     0          
O        O      0.828150000000     0.359500000000     0.697000000000     0          
O        O      0.883400000000     0.367800000000     0.767300000000     0          
O        O      0.553400000000     0.127200000000     0.954933333333     0          
O        O      0.551300000000     0.203600000000     0.914066666667     0          
O        O      0.546800000000     0.119200000000     0.882433333333     0          
O        O      0.991650000000     0.150900000000     0.894900000000     0          
O        O      0.663050000000     0.296350000000     0.683433333333     0          
O        O      0.663050000000     0.296700000000     0.785166666667     0          
O        O      0.681100000000     0.363250000000     0.840100000000     0          
O        O      0.682750000000     0.453150000000     0.861033333333     0          
T        Si     0.841000000000     0.352200000000     0.743600000000     0          
T        Si     0.535750000000     0.150500000000     0.911533333333     0          
T        Si     0.664050000000     0.352100000000     0.674500000000     0          
T        Si     0.669850000000     0.352650000000     0.794200000000     0          
T        Si     0.697400000000     0.400350000000     0.876233333333     0          
O        O      0.663500000000     0.296900000000     0.915000000000     0          
O        O      0.684400000000     0.384550000000     0.909433333333     0          
O        O      0.671850000000     0.359500000000     0.969666666667     0          
O        O      0.616600000000     0.367800000000     0.899366666667     0          
O        O      0.946600000000     0.127200000000     0.711733333333     0          
O        O      0.948700000000     0.203600000000     0.752600000000     0          
O        O      0.953200000000     0.119200000000     0.784233333333     0          
O        O      0.508350000000     0.150900000000     0.771766666667     0          
O        O      0.836950000000     0.296350000000     0.983233333333     0          
O        O      0.836950000000     0.296700000000     0.881500000000     0          
O        O      0.818900000000     0.363250000000     0.826566666667     0          
O        O      0.817250000000     0.453150000000     0.805633333333     0          
T        Si     0.659000000000     0.352200000000     0.923066666667     0          
T        Si     0.964250000000     0.150500000000     0.755133333333     0          
T        Si     0.835950000000     0.352100000000     0.992166666667     0          
T        Si     0.830150000000     0.352650000000     0.872466666667     0          
T        Si     0.802600000000     0.400350000000     0.790433333333     0          
O        O      0.913500000000     0.953100000000     0.248333333333     0          
O        O      0.934400000000     0.865450000000     0.242766666667     0          
O        O      0.921850000000     0.890500000000     0.303000000000     0          
O        O      0.866600000000     0.882200000000     0.232700000000     0          
O        O      0.696600000000     0.622800000000     0.045066666667     0          
O        O      0.698700000000     0.546400000000     0.085933333333     0          
O        O      0.703200000000     0.630800000000     0.117566666667     0          
O        O      0.758350000000     0.599100000000     0.105100000000     0          
O        O      0.586950000000     0.953650000000     0.316566666667     0          
O        O      0.625000000000     0.875000000000     0.000000000000     0          
O        O      0.586950000000     0.953300000000     0.214833333333     0          
O        O      0.568900000000     0.886750000000     0.159900000000     0          
O        O      0.567250000000     0.796850000000     0.138966666667     0          
O        O      0.852800000000     0.500000000000     0.105300000000     0          
O        O      0.878350000000     0.500000000000     0.051433333333     0          
O        O      0.896650000000     0.750000000000     0.095600000000     0          
O        O      0.872850000000     0.750000000000     0.150700000000     0          
O        O      0.898150000000     0.750000000000     0.026066666667     0          
T        Si     0.909000000000     0.897800000000     0.256400000000     0          
T        Si     0.714250000000     0.599500000000     0.088466666667     0          
T        Si     0.585950000000     0.897900000000     0.325500000000     0          
T        Si     0.580150000000     0.897350000000     0.205800000000     0          
T        Si     0.552600000000     0.849650000000     0.123766666667     0          
T        Si     0.889400000000     0.500000000000     0.098066666667     0          
T        Si     0.610650000000     0.500000000000     0.103800000000     0          
T        Si     0.672750000000     0.500000000000     0.073100000000     0          
T        Si     0.611150000000     0.500000000000     0.318633333333     0          
T        Si     0.659050000000     0.500000000000     0.192233333333     0          
O        O      0.586500000000     0.953100000000     0.085000000000     0          
O        O      0.565600000000     0.865450000000     0.090566666667     0          
O        O      0.578150000000     0.890500000000     0.030333333333     0          
O        O      0.633400000000     0.882200000000     0.100633333333     0          
O        O      0.803400000000     0.622800000000     0.288266666667     0          
O        O      0.801300000000     0.546400000000     0.247400000000     0          
O        O      0.796800000000     0.630800000000     0.215766666667     0          
O        O      0.741650000000     0.599100000000     0.228233333333     0          
O        O      0.913050000000     0.953650000000     0.016766666667     0          
O        O      0.875000000000     0.875000000000     0.000000000000     0          
O        O      0.913050000000     0.953300000000     0.118500000000     0          
O        O      0.931100000000     0.886750000000     0.173433333333     0          
O        O      0.932750000000     0.796850000000     0.194366666667     0          
O        O      0.647200000000     0.500000000000     0.228033333333     0          
O        O      0.621650000000     0.500000000000     0.281900000000     0          
O        O      0.603350000000     0.750000000000     0.237733333333     0          
O        O      0.627150000000     0.750000000000     0.182633333333     0          
O        O      0.601850000000     0.750000000000     0.307266666667     0          
T        Si     0.591000000000     0.897800000000     0.076933333333     0          
T        Si     0.785750000000     0.599500000000     0.244866666667     0          
T        Si     0.914050000000     0.897900000000     0.007833333333     0          
T        Si     0.919850000000     0.897350000000     0.127533333333     0          
T        Si     0.947400000000     0.849650000000     0.209566666667     0          
T        Si     0.610600000000     0.500000000000     0.235266666667     0          
T        Si     0.889350000000     0.500000000000     0.229533333333     0          
T        Si     0.827250000000     0.500000000000     0.260233333333     0          
T        Si     0.888850000000     0.500000000000     0.014700000000     0          
T        Si     0.840950000000     0.500000000000     0.141100000000     0          
O        O      0.586500000000     0.546900000000     0.085000000000     0          
O        O      0.565600000000     0.634550000000     0.090566666667     0          
O        O      0.578150000000     0.609500000000     0.030333333333     0          
O        O      0.633400000000     0.617800000000     0.100633333333     0          
O        O      0.803400000000     0.877200000000     0.288266666667     0          
O        O      0.801300000000     0.953600000000     0.247400000000     0          
O        O      0.796800000000     0.869200000000     0.215766666667     0          
O        O      0.741650000000     0.900900000000     0.228233333333     0          
O        O      0.913050000000     0.546350000000     0.016766666667     0          
O        O      0.875000000000     0.625000000000     0.000000000000     0          
O        O      0.913050000000     0.546700000000     0.118500000000     0          
O        O      0.931100000000     0.613250000000     0.173433333333     0          
O        O      0.932750000000     0.703150000000     0.194366666667     0          
T        Si     0.591000000000     0.602200000000     0.076933333333     0          
T        Si     0.785750000000     0.900500000000     0.244866666667     0          
T        Si     0.914050000000     0.602100000000     0.007833333333     0          
T        Si     0.919850000000     0.602650000000     0.127533333333     0          
T        Si     0.947400000000     0.650350000000     0.209566666667     0          
O        O      0.913500000000     0.546900000000     0.248333333333     0          
O        O      0.934400000000     0.634550000000     0.242766666667     0          
O        O      0.921850000000     0.609500000000     0.303000000000     0          
O        O      0.866600000000     0.617800000000     0.232700000000     0          
O        O      0.696600000000     0.877200000000     0.045066666667     0          
O        O      0.698700000000     0.953600000000     0.085933333333     0          
O        O      0.703200000000     0.869200000000     0.117566666667     0          
O        O      0.758350000000     0.900900000000     0.105100000000     0          
O        O      0.586950000000     0.546350000000     0.316566666667     0          
O        O      0.625000000000     0.625000000000     0.000000000000     0          
O        O      0.586950000000     0.546700000000     0.214833333333     0          
O        O      0.568900000000     0.613250000000     0.159900000000     0          
O        O      0.567250000000     0.703150000000     0.138966666667     0          
T        Si     0.909000000000     0.602200000000     0.256400000000     0          
T        Si     0.714250000000     0.900500000000     0.088466666667     0          
T        Si     0.585950000000     0.602100000000     0.325500000000     0          
T        Si     0.580150000000     0.602650000000     0.205800000000     0          
T        Si     0.552600000000     0.650350000000     0.123766666667     0          
O        O      0.663500000000     0.703100000000     0.248333333333     0          
O        O      0.684400000000     0.615450000000     0.242766666667     0          
O        O      0.671850000000     0.640500000000     0.303000000000     0          
O        O      0.616600000000     0.632200000000     0.232700000000     0          
O        O      0.946600000000     0.872800000000     0.045066666667     0          
O        O      0.948700000000     0.796400000000     0.085933333333     0          
O        O      0.953200000000     0.880800000000     0.117566666667     0          
O        O      0.508350000000     0.849100000000     0.105100000000     0          
O        O      0.836950000000     0.703650000000     0.316566666667     0          
O        O      0.836950000000     0.703300000000     0.214833333333     0          
O        O      0.818900000000     0.636750000000     0.159900000000     0          
O        O      0.817250000000     0.546850000000     0.138966666667     0          
O        O      0.602800000000     0.750000000000     0.105300000000     0          
O        O      0.628350000000     0.750000000000     0.051433333333     0          
O        O      0.646650000000     0.500000000000     0.095600000000     0          
O        O      0.622850000000     0.500000000000     0.150700000000     0          
O        O      0.648150000000     0.500000000000     0.026066666667     0          
T        Si     0.659000000000     0.647800000000     0.256400000000     0          
T        Si     0.964250000000     0.849500000000     0.088466666667     0          
T        Si     0.835950000000     0.647900000000     0.325500000000     0          
T        Si     0.830150000000     0.647350000000     0.205800000000     0          
T        Si     0.802600000000     0.599650000000     0.123766666667     0          
T        Si     0.639400000000     0.750000000000     0.098066666667     0          
T        Si     0.860650000000     0.750000000000     0.103800000000     0          
T        Si     0.922750000000     0.750000000000     0.073100000000     0          
T        Si     0.861150000000     0.750000000000     0.318633333333     0          
T        Si     0.909050000000     0.750000000000     0.192233333333     0          
O        O      0.836500000000     0.703100000000     0.085000000000     0          
O        O      0.815600000000     0.615450000000     0.090566666667     0          
O        O      0.828150000000     0.640500000000     0.030333333333     0          
O        O      0.883400000000     0.632200000000     0.100633333333     0          
O        O      0.553400000000     0.872800000000     0.288266666667     0          
O        O      0.551300000000     0.796400000000     0.247400000000     0          
O        O      0.546800000000     0.880800000000     0.215766666667     0          
O        O      0.991650000000     0.849100000000     0.228233333333     0          
O        O      0.663050000000     0.703650000000     0.016766666667     0          
O        O      0.663050000000     0.703300000000     0.118500000000     0          
O        O      0.681100000000     0.636750000000     0.173433333333     0          
O        O      0.682750000000     0.546850000000     0.194366666667     0          
O        O      0.897200000000     0.750000000000     0.228033333333     0          
O        O      0.871650000000     0.750000000000     0.281900000000     0          
O        O      0.853350000000     0.500000000000     0.237733333333     0          
O        O      0.877150000000     0.500000000000     0.182633333333     0          
O        O      0.851850000000     0.500000000000     0.307266666667     0          
T        Si     0.841000000000     0.647800000000     0.076933333333     0          
T        Si     0.535750000000     0.849500000000     0.244866666667     0          
T        Si     0.664050000000     0.647900000000     0.007833333333     0          
T        Si     0.669850000000     0.647350000000     0.127533333333     0          
T        Si     0.697400000000     0.599650000000     0.209566666667     0          
T        Si     0.860600000000     0.750000000000     0.235266666667     0          
T        Si     0.639350000000     0.750000000000     0.229533333333     0          
T        Si     0.577250000000     0.750000000000     0.260233333333     0          
T        Si     0.638850000000     0.750000000000     0.014700000000     0          
T        Si     0.590950000000     0.750000000000     0.141100000000     0          
O        O      0.836500000000     0.796900000000     0.085000000000     0          
O        O      0.815600000000     0.884550000000     0.090566666667     0          
O        O      0.828150000000     0.859500000000     0.030333333333     0          
O        O      0.883400000000     0.867800000000     0.100633333333     0          
O        O      0.553400000000     0.627200000000     0.288266666667     0          
O        O      0.551300000000     0.703600000000     0.247400000000     0          
O        O      0.546800000000     0.619200000000     0.215766666667     0          
O        O      0.991650000000     0.650900000000     0.228233333333     0          
O        O      0.663050000000     0.796350000000     0.016766666667     0          
O        O      0.663050000000     0.796700000000     0.118500000000     0          
O        O      0.681100000000     0.863250000000     0.173433333333     0          
O        O      0.682750000000     0.953150000000     0.194366666667     0          
T        Si     0.841000000000     0.852200000000     0.076933333333     0          
T        Si     0.535750000000     0.650500000000     0.244866666667     0          
T        Si     0.664050000000     0.852100000000     0.007833333333     0          
T        Si     0.669850000000     0.852650000000     0.127533333333     0          
T        Si     0.697400000000     0.900350000000     0.209566666667     0          
O        O      0.663500000000     0.796900000000     0.248333333333     0          
O        O      0.684400000000     0.884550000000     0.242766666667     0          
O        O      0.671850000000     0.859500000000     0.303000000000     0          
O        O      0.616600000000     0.867800000000     0.232700000000     0          
O        O      0.946600000000     0.627200000000     0.045066666667     0          
O        O      0.948700000000     0.703600000000     0.085933333333     0          
O        O      0.953200000000     0.619200000000     0.117566666667     0          
O        O      0.508350000000     0.650900000000     0.105100000000     0          
O        O      0.836950000000     0.796350000000     0.316566666667     0          
O        O      0.836950000000     0.796700000000     0.214833333333     0          
O        O      0.818900000000     0.863250000000     0.159900000000     0          
O        O      0.817250000000     0.953150000000     0.138966666667     0          
T        Si     0.659000000000     0.852200000000     0.256400000000     0          
T        Si     0.964250000000     0.650500000000     0.088466666667     0          
T        Si     0.835950000000     0.852100000000     0.325500000000     0          
T        Si     0.830150000000     0.852650000000     0.205800000000     0          
T        Si     0.802600000000     0.900350000000     0.123766666667     0          
O        O      0.913500000000     0.953100000000     0.581666666667     0          
O        O      0.934400000000     0.865450000000     0.576100000000     0          
O        O      0.921850000000     0.890500000000     0.636333333333     0          
O        O      0.866600000000     0.882200000000     0.566033333333     0          
O        O      0.696600000000     0.622800000000     0.378400000000     0          
O        O      0.698700000000     0.546400000000     0.419266666667     0          
O        O      0.703200000000     0.630800000000     0.450900000000     0          
O        O      0.758350000000     0.599100000000     0.438433333333     0          
O        O      0.586950000000     0.953650000000     0.649900000000     0          
O        O      0.625000000000     0.875000000000     0.333333333333     0          
O        O      0.586950000000     0.953300000000     0.548166666667     0          
O        O      0.568900000000     0.886750000000     0.493233333333     0          
O        O      0.567250000000     0.796850000000     0.472300000000     0          
O        O      0.852800000000     0.500000000000     0.438633333333     0          
O        O      0.878350000000     0.500000000000     0.384766666667     0          
O        O      0.896650000000     0.750000000000     0.428933333333     0          
O        O      0.872850000000     0.750000000000     0.484033333333     0          
O        O      0.898150000000     0.750000000000     0.359400000000     0          
T        Si     0.909000000000     0.897800000000     0.589733333333     0          
T        Si     0.714250000000     0.599500000000     0.421800000000     0          
T        Si     0.585950000000     0.897900000000     0.658833333333     0          
T        Si     0.580150000000     0.897350000000     0.539133333333     0          
T        Si     0.552600000000     0.849650000000     0.457100000000     0          
T        Si     0.889400000000     0.500000000000     0.431400000000     0          
T        Si     0.610650000000     0.500000000000     0.437133333333     0          
T        Si     0.672750000000     0.500000000000     0.406433333333     0          
T        Si     0.611150000000     0.500000000000     0.651966666667     0          
T        Si     0.659050000000     0.500000000000     0.525566666667     0          
O        O      0.586500000000     0.953100000000     0.418333333333     0          
O        O      0.565600000000     0.865450000000     0.423900000000     0          
O        O      0.578150000000     0.890500000000     0.363666666667     0          
O        O      0.633400000000     0.882200000000     0.433966666667     0          
O        O      0.803400000000     0.622800000000     0.621600000000     0          
O        O      0.801300000000     0.546400000000     0.580733333333     0          
O        O      0.796800000000     0.630800000000     0.549100000000     0          
O        O      0.741650000000     0.599100000000     0.561566666667     0          
O        O      0.913050000000     0.953650000000     0.350100000000     0          
O        O      0.875000000000     0.875000000000     0.333333333333     0          
O        O      0.913050000000     0.953300000000     0.451833333333     0          
O        O      0.931100000000     0.886750000000     0.506766666667     0          
O        O      0.932750000000     0.796850000000     0.527700000000     0          
O        O      0.647200000000     0.500000000000     0.561366666667     0          
O        O      0.621650000000     0.500000000000     0.615233333333     0          
O        O      0.603350000000     0.750000000000     0.571066666667     0          
O        O      0.627150000000     0.750000000000     0.515966666667     0          
O        O      0.601850000000     0.750000000000     0.640600000000     0          
T        Si     0.591000000000     0.897800000000     0.410266666667     0          
T        Si     0.785750000000     0.599500000000     0.578200000000     0          
T        Si     0.914050000000     0.897900000000     0.341166666667     0          
T        Si     0.919850000000     0.897350000000     0.460866666667     0          
T        Si     0.947400000000     0.849650000000     0.542900000000     0          
T        Si     0.610600000000     0.500000000000     0.568600000000     0          
T        Si     0.889350000000     0.500000000000     0.562866666667     0          
T        Si     0.827250000000     0.500000000000     0.593566666667     0          
T        Si     0.888850000000     0.500000000000     0.348033333333     0          
T        Si     0.840950000000     0.500000000000     0.474433333333     0          
O        O      0.586500000000     0.546900000000     0.418333333333     0          
O        O      0.565600000000     0.634550000000     0.423900000000     0          
O        O      0.578150000000     0.609500000000     0.363666666667     0          
O        O      0.633400000000     0.617800000000     0.433966666667     0          
O        O      0.803400000000     0.877200000000     0.621600000000     0          
O        O      0.801300000000     0.953600000000     0.580733333333     0          
O        O      0.796800000000     0.869200000000     0.549100000000     0          
O        O      0.741650000000     0.900900000000     0.561566666667     0          
O        O      0.913050000000     0.546350000000     0.350100000000     0          
O        O      0.875000000000     0.625000000000     0.333333333333     0          
O        O      0.913050000000     0.546700000000     0.451833333333     0          
O        O      0.931100000000     0.613250000000     0.506766666667     0          
O        O      0.932750000000     0.703150000000     0.527700000000     0          
T        Si     0.591000000000     0.602200000000     0.410266666667     0          
T        Si     0.785750000000     0.900500000000     0.578200000000     0          
T        Si     0.914050000000     0.602100000000     0.341166666667     0          
T        Si     0.919850000000     0.602650000000     0.460866666667     0          
T        Si     0.947400000000     0.650350000000     0.542900000000     0          
O        O      0.913500000000     0.546900000000     0.581666666667     0          
O        O      0.934400000000     0.634550000000     0.576100000000     0          
O        O      0.921850000000     0.609500000000     0.636333333333     0          
O        O      0.866600000000     0.617800000000     0.566033333333     0          
O        O      0.696600000000     0.877200000000     0.378400000000     0          
O        O      0.698700000000     0.953600000000     0.419266666667     0          
O        O      0.703200000000     0.869200000000     0.450900000000     0          
O        O      0.758350000000     0.900900000000     0.438433333333     0          
O        O      0.586950000000     0.546350000000     0.649900000000     0          
O        O      0.625000000000     0.625000000000     0.333333333333     0          
O        O      0.586950000000     0.546700000000     0.548166666667     0          
O        O      0.568900000000     0.613250000000     0.493233333333     0          
O        O      0.567250000000     0.703150000000     0.472300000000     0          
T        Si     0.909000000000     0.602200000000     0.589733333333     0          
T        Si     0.714250000000     0.900500000000     0.421800000000     0          
T        Si     0.585950000000     0.602100000000     0.658833333333     0          
T        Si     0.580150000000     0.602650000000     0.539133333333     0          
T        Si     0.552600000000     0.650350000000     0.457100000000     0          
O        O      0.663500000000     0.703100000000     0.581666666667     0          
O        O      0.684400000000     0.615450000000     0.576100000000     0          
O        O      0.671850000000     0.640500000000     0.636333333333     0          
O        O      0.616600000000     0.632200000000     0.566033333333     0          
O        O      0.946600000000     0.872800000000     0.378400000000     0          
O        O      0.948700000000     0.796400000000     0.419266666667     0          
O        O      0.953200000000     0.880800000000     0.450900000000     0          
O        O      0.508350000000     0.849100000000     0.438433333333     0          
O        O      0.836950000000     0.703650000000     0.649900000000     0          
O        O      0.836950000000     0.703300000000     0.548166666667     0          
O        O      0.818900000000     0.636750000000     0.493233333333     0          
O        O      0.817250000000     0.546850000000     0.472300000000     0          
O        O      0.602800000000     0.750000000000     0.438633333333     0          
O        O      0.628350000000     0.750000000000     0.384766666667     0          
O        O      0.646650000000     0.500000000000     0.428933333333     0          
O        O      0.622850000000     0.500000000000     0.484033333333     0          
O        O      0.648150000000     0.500000000000     0.359400000000     0          
T        Si     0.659000000000     0.647800000000     0.589733333333     0          
T        Si     0.964250000000     0.849500000000     0.421800000000     0          
T        Si     0.835950000000     0.647900000000     0.658833333333     0          
T        Si     0.830150000000     0.647350000000     0.539133333333     0          
T        Si     0.802600000000     0.599650000000     0.457100000000     0          
T        Si     0.639400000000     0.750000000000     0.431400000000     0          
T        Si     0.860650000000     0.750000000000     0.437133333333     0          
T        Si     0.922750000000     0.750000000000     0.406433333333     0          
T        Si     0.861150000000     0.750000000000     0.651966666667     0          
T        Si     0.909050000000     0.750000000000     0.525566666667     0          
O        O      0.836500000000     0.703100000000     0.418333333333     0          
O        O      0.815600000000     0.615450000000     0.423900000000     0          
O        O      0.828150000000     0.640500000000     0.363666666667     0          
O        O      0.883400000000     0.632200000000     0.433966666667     0          
O        O      0.553400000000     0.872800000000     0.621600000000     0          
O        O      0.551300000000     0.796400000000     0.580733333333     0          
O        O      0.546800000000     0.880800000000     0.549100000000     0          
O        O      0.991650000000     0.849100000000     0.561566666667     0          
O        O      0.663050000000     0.703650000000     0.350100000000     0          
O        O      0.663050000000     0.703300000000     0.451833333333     0          
O        O      0.681100000000     0.636750000000     0.506766666667     0          
O        O      0.682750000000     0.546850000000     0.527700000000     0          
O        O      0.897200000000     0.750000000000     0.561366666667     0          
O        O      0.871650000000     0.750000000000     0.615233333333     0          
O        O      0.853350000000     0.500000000000     0.571066666667     0          
O        O      0.877150000000     0.500000000000     0.515966666667     0          
O        O      0.851850000000     0.500000000000     0.640600000000     0          
T        Si     0.841000000000     0.647800000000     0.410266666667     0          
T        Si     0.535750000000     0.849500000000     0.578200000000     0          
T        Si     0.664050000000     0.647900000000     0.341166666667     0          
T        Si     0.669850000000     0.647350000000     0.460866666667     0          
T        Si     0.697400000000     0.599650000000     0.542900000000     0          
T        Si     0.860600000000     0.750000000000     0.568600000000     0          
T        Si     0.639350000000     0.750000000000     0.562866666667     0          
T        Si     0.577250000000     0.750000000000     0.593566666667     0          
T        Si     0.638850000000     0.750000000000     0.348033333333     0          
T        Si     0.590950000000     0.750000000000     0.474433333333     0          
O        O      0.836500000000     0.796900000000     0.418333333333     0          
O        O      0.815600000000     0.884550000000     0.423900000000     0          
O        O      0.828150000000     0.859500000000     0.363666666667     0          
O        O      0.883400000000     0.867800000000     0.433966666667     0          
O        O      0.553400000000     0.627200000000     0.621600000000     0          
O        O      0.551300000000     0.703600000000     0.580733333333     0          
O        O      0.546800000000     0.619200000000     0.549100000000     0          
O        O      0.991650000000     0.650900000000     0.561566666667     0          
O        O      0.663050000000     0.796350000000     0.350100000000     0          
O        O      0.663050000000     0.796700000000     0.451833333333     0          
O        O      0.681100000000     0.863250000000     0.506766666667     0          
O        O      0.682750000000     0.953150000000     0.527700000000     0          
T        Si     0.841000000000     0.852200000000     0.410266666667     0          
T        Si     0.535750000000     0.650500000000     0.578200000000     0          
T        Si     0.664050000000     0.852100000000     0.341166666667     0          
T        Si     0.669850000000     0.852650000000     0.460866666667     0          
T        Si     0.697400000000     0.900350000000     0.542900000000     0          
O        O      0.663500000000     0.796900000000     0.581666666667     0          
O        O      0.684400000000     0.884550000000     0.576100000000     0          
O        O      0.671850000000     0.859500000000     0.636333333333     0          
O        O      0.616600000000     0.867800000000     0.566033333333     0          
O        O      0.946600000000     0.627200000000     0.378400000000     0          
O        O      0.948700000000     0.703600000000     0.419266666667     0          
O        O      0.953200000000     0.619200000000     0.450900000000     0          
O        O      0.508350000000     0.650900000000     0.438433333333     0          
O        O      0.836950000000     0.796350000000     0.649900000000     0          
O        O      0.836950000000     0.796700000000     0.548166666667     0          
O        O      0.818900000000     0.863250000000     0.493233333333     0          
O        O      0.817250000000     0.953150000000     0.472300000000     0          
T        Si     0.659000000000     0.852200000000     0.589733333333     0          
T        Si     0.964250000000     0.650500000000     0.421800000000     0          
T        Si     0.835950000000     0.852100000000     0.658833333333     0          
T        Si     0.830150000000     0.852650000000     0.539133333333     0          
T        Si     0.802600000000     0.900350000000     0.457100000000     0          
O        O      0.913500000000     0.953100000000     0.915000000000     0          
O        O      0.934400000000     0.865450000000     0.909433333333     0          
O        O      0.921850000000     0.890500000000     0.969666666667     0          
O        O      0.866600000000     0.882200000000     0.899366666667     0          
O        O      0.696600000000     0.622800000000     0.711733333333     0          
O        O      0.698700000000     0.546400000000     0.752600000000     0          
O        O      0.703200000000     0.630800000000     0.784233333333     0          
O        O      0.758350000000     0.599100000000     0.771766666667     0          
O        O      0.586950000000     0.953650000000     0.983233333333     0          
O        O      0.625000000000     0.875000000000     0.666666666667     0          
O        O      0.586950000000     0.953300000000     0.881500000000     0          
O        O      0.568900000000     0.886750000000     0.826566666667     0          
O        O      0.567250000000     0.796850000000     0.805633333333     0          
O        O      0.852800000000     0.500000000000     0.771966666667     0          
O        O      0.878350000000     0.500000000000     0.718100000000     0          
O        O      0.896650000000     0.750000000000     0.762266666667     0          
O        O      0.872850000000     0.750000000000     0.817366666667     0          
O        O      0.898150000000     0.750000000000     0.692733333333     0          
T        Si     0.909000000000     0.897800000000     0.923066666667     0          
T        Si     0.714250000000     0.599500000000     0.755133333333     0          
T        Si     0.585950000000     0.897900000000     0.992166666667     0          
T        Si     0.580150000000     0.897350000000     0.872466666667     0          
T        Si     0.552600000000     0.849650000000     0.790433333333     0          
T        Si     0.889400000000     0.500000000000     0.764733333333     0          
T        Si     0.610650000000     0.500000000000     0.770466666667     0          
T        Si     0.672750000000     0.500000000000     0.739766666667     0          
T        Si     0.611150000000     0.500000000000     0.985300000000     0          
T        Si     0.659050000000     0.500000000000     0.858900000000     0          
O        O      0.586500000000     0.953100000000     0.751666666667     0          
O        O      0.565600000000     0.865450000000     0.757233333333     0          
O        O      0.578150000000     0.890500000000     0.697000000000     0          
O        O      0.633400000000     0.882200000000     0.767300000000     0          
O        O      0.803400000000     0.622800000000     0.954933333333     0          
O        O      0.801300000000     0.546400000000     0.914066666667     0          
O        O      0.796800000000     0.630800000000     0.882433333333     0          
O        O      0.741650000000     0.599100000000     0.894900000000     0          
O        O      0.913050000000     0.953650000000     0.683433333333     0          
O        O      0.875000000000     0.875000000000     0.666666666667     0          
O        O      0.913050000000     0.953300000000     0.785166666667     0          
O        O      0.931100000000     0.886750000000     0.840100000000     0          
O        O      0.932750000000     0.796850000000     0.861033333333     0          
O        O      0.647200000000     0.500000000000     0.894700000000     0          
O        O      0.621650000000     0.500000000000     0.948566666667     0          
O        O      0.603350000000     0.750000000000     0.904400000000     0          
O        O      0.627150000000     0.750000000000     0.849300000000     0          
O        O      0.601850000000     0.750000000000     0.973933333333     0          
T        Si     0.591000000000     0.897800000000     0.743600000000     0          
T        Si     0.785750000000     0.599500000000     0.911533333333     0          
T        Si     0.914050000000     0.897900000000     0.674500000000     0          
T        Si     0.919850000000     0.897350000000     0.794200000000     0          
T        Si     0.947400000000     0.849650000000     0.876233333333     0          
T        Si     0.610600000000     0.500000000000     0.901933333333     0          
T        Si     0.889350000000     0.500000000000     0.896200000000     0          
T        Si     0.827250000000     0.500000000000     0.926900000000     0          
T        Si     0.888850000000     0.500000000000     0.681366666667     0          
T        Si     0.840950000000     0.500000000000     0.807766666667     0          
O        O      0.586500000000     0.546900000000     0.751666666667     0          
O        O      0.565600000000     0.634550000000     0.757233333333     0          
O        O      0.578150000000     0.609500000000     0.697000000000     0          
O        O      0.633400000000     0.617800000000     0.767300000000     0          
O        O      0.803400000000     0.877200000000     0.954933333333     0          
O        O      0.801300000000     0.953600000000     0.914066666667     0          
O        O      0.796800000000     0.869200000000     0.882433333333     0          
O        O      0.741650000000     0.900900000000     0.894900000000     0          
O        O      0.913050000000     0.546350000000     0.683433333333     0          
O        O      0.875000000000     0.625000000000     0.666666666667     0          
O        O      0.913050000000     0.546700000000     0.785166666667     0          
O        O      0.931100000000     0.613250000000     0.840100000000     0          
O        O      0.932750000000     0.703150000000     0.861033333333     0          
T        Si     0.591000000000     0.602200000000     0.743600000000     0          
T        Si     0.785750000000     0.900500000000     0.911533333333     0          
T        Si     0.914050000000     0.602100000000     0.674500000000     0          
T        Si     0.919850000000     0.602650000000     0.794200000000     0          
T        Si     0.947400000000     0.650350000000     0.876233333333     0          
O        O      0.913500000000     0.546900000000     0.915000000000     0          
O        O      0.934400000000     0.634550000000     0.909433333333     0          
O        O      0.921850000000     0.609500000000     0.969666666667     0          
O        O      0.866600000000     0.617800000000     0.899366666667     0          
O        O      0.696600000000     0.877200000000     0.711733333333     0          
O        O      0.698700000000     0.953600000000     0.752600000000     0          
O        O      0.703200000000     0.869200000000     0.784233333333     0          
O        O      0.758350000000     0.900900000000     0.771766666667     0          
O        O      0.586950000000     0.546350000000     0.983233333333     0          
O        O      0.625000000000     0.625000000000     0.666666666667     0          
O        O      0.586950000000     0.546700000000     0.881500000000     0          
O        O      0.568900000000     0.613250000000     0.826566666667     0          
O        O      0.567250000000     0.703150000000     0.805633333333     0          
T        Si     0.909000000000     0.602200000000     0.923066666667     0          
T        Si     0.714250000000     0.900500000000     0.755133333333     0          
T        Si     0.585950000000     0.602100000000     0.992166666667     0          
T        Si     0.580150000000     0.602650000000     0.872466666667     0          
T        Si     0.552600000000     0.650350000000     0.790433333333     0          
O        O      0.663500000000     0.703100000000     0.915000000000     0          
O        O      0.684400000000     0.615450000000     0.909433333333     0          
O        O      0.671850000000     0.640500000000     0.969666666667     0          
O        O      0.616600000000     0.632200000000     0.899366666667     0          
O        O      0.946600000000     0.872800000000     0.711733333333     0          
O        O      0.948700000000     0.796400000000     0.752600000000     0          
O        O      0.953200000000     0.880800000000     0.784233333333     0          
O        O      0.508350000000     0.849100000000     0.771766666667     0          
O        O      0.836950000000     0.703650000000     0.983233333333     0          
O        O      0.836950000000     0.703300000000     0.881500000000     0          
O        O      0.818900000000     0.636750000000     0.826566666667     0          
O        O      0.817250000000     0.546850000000     0.805633333333     0          
O        O      0.602800000000     0.750000000000     0.771966666667     0          
O        O      0.628350000000     0.750000000000     0.718100000000     0          
O        O      0.646650000000     0.500000000000     0.762266666667     0          
O        O      0.622850000000     0.500000000000     0.817366666667     0          
O        O      0.648150000000     0.500000000000     0.692733333333     0          
T        Si     0.659000000000     0.647800000000     0.923066666667     0          
T        Si     0.964250000000     0.849500000000     0.755133333333     0          
T        Si     0.835950000000     0.647900000000     0.992166666667     0          
T        Si     0.830150000000     0.647350000000     0.872466666667     0          
T        Si     0.802600000000     0.599650000000     0.790433333333     0          
T        Si     0.639400000000     0.750000000000     0.764733333333     0          
T        Si     0.860650000000     0.750000000000     0.770466666667     0          
T        Si     0.922750000000     0.750000000000     0.739766666667     0          
T        Si     0.861150000000     0.750000000000     0.985300000000     0          
T        Si     0.909050000000     0.750000000000     0.858900000000     0          
O        O      0.836500000000     0.703100000000     0.751666666667     0          
O        O      0.815600000000     0.615450000000     0.757233333333     0          
O        O      0.828150000000     0.640500000000     0.697000000000     0          
O        O      0.883400000000     0.632200000000     0.767300000000     0          
O        O      0.553400000000     0.872800000000     0.954933333333     0          
O        O      0.551300000000     0.796400000000     0.914066666667     0          
O        O      0.546800000000     0.880800000000     0.882433333333     0          
O        O      0.991650000000     0.849100000000     0.894900000000     0          
O        O      0.663050000000     0.703650000000     0.683433333333     0          
O        O      0.663050000000     0.703300000000     0.785166666667     0          
O        O      0.681100000000     0.636750000000     0.840100000000     0          
O        O      0.682750000000     0.546850000000     0.861033333333     0          
O        O      0.897200000000     0.750000000000     0.894700000000     0          
O        O      0.871650000000     0.750000000000     0.948566666667     0          
O        O      0.853350000000     0.500000000000     0.904400000000     0          
O        O      0.877150000000     0.500000000000     0.849300000000     0          
O        O      0.851850000000     0.500000000000     0.973933333333     0          
T        Si     0.841000000000     0.647800000000     0.743600000000     0          
T        Si     0.535750000000     0.849500000000     0.911533333333     0          
T        Si     0.664050000000     0.647900000000     0.674500000000     0          
T        Si     0.669850000000     0.647350000000     0.794200000000     0          
T        Si     0.697400000000     0.599650000000     0.876233333333     0          
T        Si     0.860600000000     0.750000000000     0.901933333333     0          
T        Si     0.639350000000     0.750000000000     0.896200000000     0          
T        Si     0.577250000000     0.750000000000     0.926900000000     0          
T        Si     0.638850000000     0.750000000000     0.681366666667     0          
T        Si     0.590950000000     0.750000000000     0.807766666667     0          
O        O      0.836500000000     0.796900000000     0.751666666667     0          
O        O      0.815600000000     0.884550000000     0.757233333333     0          
O        O      0.828150000000     0.859500000000     0.697000000000     0          
O        O      0.883400000000     0.867800000000     0.767300000000     0          
O        O      0.553400000000     0.627200000000     0.954933333333     0          
O        O      0.551300000000     0.703600000000     0.914066666667     0          
O        O      0.546800000000     0.619200000000     0.882433333333     0          
O        O      0.991650000000     0.650900000000     0.894900000000     0          
O        O      0.663050000000     0.796350000000     0.683433333333     0          
O        O      0.663050000000     0.796700000000     0.785166666667     0          
O        O      0.681100000000     0.863250000000     0.840100000000     0          
O        O      0.682750000000     0.953150000000     0.861033333333     0          
T        Si     0.841000000000     0.852200000000     0.743600000000     0          
T        Si     0.535750000000     0.650500000000     0.911533333333     0          
T        Si     0.664050000000     0.852100000000     0.674500000000     0          
T        Si     0.669850000000     0.852650000000     0.794200000000     0          
T        Si     0.697400000000     0.900350000000     0.876233333333     0          
O        O      0.663500000000     0.796900000000     0.915000000000     0          
O        O      0.684400000000     0.884550000000     0.909433333333     0          
O        O      0.671850000000     0.859500000000     0.969666666667     0          
O        O      0.616600000000     0.867800000000     0.899366666667     0          
O        O      0.946600000000     0.627200000000     0.711733333333     0          
O        O      0.948700000000     0.703600000000     0.752600000000     0          
O        O      0.953200000000     0.619200000000     0.784233333333     0          
O        O      0.508350000000     0.650900000000     0.771766666667     0          
O        O      0.836950000000     0.796350000000     0.983233333333     0          
O        O      0.836950000000     0.796700000000     0.881500000000     0          
O        O      0.818900000000     0.863250000000     0.826566666667     0          
O        O      0.817250000000     0.953150000000     0.805633333333     0          
T        Si     0.659000000000     0.852200000000     0.923066666667     0          
T        Si     0.964250000000     0.650500000000     0.755133333333     0          
T        Si     0.835950000000     0.852100000000     0.992166666667     0          
T        Si     0.830150000000     0.852650000000     0.872466666667     0          
T        Si     0.802600000000     0.900350000000     0.790433333333     0          


